61
07/14/2022 09:30, XYZ structure generated by mol3D Class, molSimplify
Fe 	0.000000	0.000000	0.000000
N 	0.000000	2.230000	0.000000
N 	2.217804	0.232906	0.000000
C 	-1.043677	3.100365	-0.007733
H 	-2.058579	2.728217	0.009652
C 	-0.807009	4.467995	-0.039417
H 	-1.635616	5.165137	-0.046361
C 	0.505903	4.926214	-0.061224
H 	0.699723	5.990907	-0.085893
C 	1.571620	4.019622	-0.052072
H 	2.563077	4.437621	-0.071085
C 	3.819666	2.002905	-0.012399
H 	4.118652	3.036740	-0.019368
C 	4.839995	1.049632	-0.001505
H 	5.874661	1.367618	-0.001593
C 	4.534647	-0.308516	0.009807
H 	5.323787	-1.048449	0.018381
C 	3.201618	-0.703005	0.010323
H 	2.944028	-1.753700	0.019203
C 	1.321850	2.626247	-0.021148
C 	2.465721	1.596344	-0.010968
N 	0.000000	-2.230000	0.000000
N 	0.000000	-0.175886	2.223053
C 	-0.007199	-3.127379	-1.020275
H 	0.024340	-2.780273	-2.044225
C 	-0.054983	-4.487502	-0.748411
H 	-0.061370	-5.207270	-1.556714
C 	-0.094819	-4.911419	0.575995
H 	-0.132716	-5.970507	0.797679
C 	-0.086464	-3.979897	1.617581
H 	-0.119853	-4.377212	2.616136
C 	-0.049453	-1.937669	3.833156
H 	-0.071865	-2.967231	4.143261
C 	-0.040393	-0.979740	4.848570
H 	-0.056064	-1.292858	5.884709
C 	-0.010868	0.376044	4.537508
H 	-0.002951	1.118737	5.324229
C 	0.009597	0.764114	3.203320
H 	0.032741	1.813647	2.942347
C 	-0.037771	-2.592214	1.337077
C 	-0.028604	-1.541042	2.474259
N 	-2.230000	0.000000	0.000000
N 	-0.123883	0.000000	-2.226556
C 	-3.148751	-0.007895	1.000589
H 	-2.823625	-0.030240	2.031665
C 	-4.503481	0.013347	0.698193
H 	-5.241299	0.007325	1.490125
C 	-4.899056	0.042353	-0.634318
H 	-5.953282	0.059054	-0.880034
C 	-3.945367	0.049373	-1.655874
H 	-4.326654	0.071539	-2.660637
C 	-1.878133	0.082329	-3.842222
H 	-2.904065	0.114103	-4.162209
C 	-0.914980	0.090448	-4.853432
H 	-1.223270	0.126759	-5.890397
C 	0.438536	0.053193	-4.536860
H 	1.184789	0.059511	-5.320728
C 	0.820530	0.007669	-3.202437
H 	1.868777	-0.022025	-2.937394
C 	-2.562398	0.027184	-1.349280
C 	-1.491589	0.035617	-2.480713
