67
01/19/2019 23:11, XYZ structure generated by mol3D Class, molSimplify
Fe 	0.000000	0.000000	0.000000
N 	0.000000	2.038969	0.000000
C 	1.312716	2.380878	0.000838
C 	2.326829	1.360991	0.002060
N 	2.038969	-0.000013	0.000000
C 	3.020366	-0.940139	0.001906
C 	4.360035	-0.556809	0.004320
C 	4.690850	0.797649	0.005213
C 	3.682512	1.770773	0.004158
C 	4.012454	3.136110	0.005093
C 	3.013294	4.113564	0.003886
C 	1.663346	3.744922	0.001818
C 	0.639742	4.707286	0.000822
C 	-0.702484	4.305785	-0.001247
C 	-1.013030	2.943640	-0.001844
H 	2.762253	-1.990131	0.000791
H 	5.139873	-1.307318	0.005322
H 	5.735726	1.084602	0.006878
H 	5.049794	3.449391	0.006700
H 	3.297312	5.159130	0.004666
H 	0.876479	5.764453	0.001486
H 	-1.493056	5.044853	-0.002253
H 	-2.044338	2.622407	-0.003258
N 	0.000000	-2.038969	0.000000
C 	-0.008643	-2.345109	1.337083
C 	-0.007568	-1.336990	2.345217
N 	0.000000	0.000014	2.038969
C 	0.001804	0.963862	2.998811
C 	-0.005966	0.612434	4.346380
C 	-0.015086	-0.734085	4.702640
C 	-0.015906	-1.722766	3.709698
C 	-0.024943	-3.077410	4.062625
C 	-0.025819	-4.062313	3.077809
C 	-0.017655	-3.709546	1.723095
C 	-0.018164	-4.702644	0.734615
C 	-0.009715	-4.346603	-0.611926
C 	-0.000673	-2.999116	-0.963584
H 	0.008426	2.007744	2.718059
H 	-0.005101	1.379376	5.110056
H 	-0.021314	-1.002482	5.752459
H 	-0.031348	-3.375943	5.104360
H 	-0.032784	-5.104010	3.376466
H 	-0.024993	-5.752416	1.003184
H 	-0.009985	-5.110405	-1.378744
H 	0.006441	-2.718820	-2.007562
N 	-2.038969	0.000000	0.000000
C 	-2.344698	-0.041735	-1.336645
C 	-1.336585	-0.039820	-2.344807
N 	0.000013	0.000000	-2.038969
C 	0.963849	0.002823	-2.998757
C 	0.612903	-0.037900	-4.345883
C 	-0.733116	-0.081085	-4.701676
C 	-1.721826	-0.082609	-3.708748
C 	-3.075963	-0.126207	-4.061109
C 	-4.060829	-0.128510	-3.076204
C 	-3.708544	-0.086852	-1.721973
C 	-4.701494	-0.089375	-0.733305
C 	-4.345871	-0.047983	0.612790
C 	-2.998926	-0.003496	0.963859
H 	2.007304	0.035961	-2.718216
H 	1.379825	-0.036285	-5.109576
H 	-1.001103	-0.113111	-5.751128
H 	-3.374119	-0.158991	-5.102454
H 	-5.102106	-0.162949	-3.374415
H 	-5.750856	-0.123533	-1.001385
H 	-5.109590	-0.049955	1.379683
H 	-2.718623	0.029773	2.007349
