55
gen3/gen3_oxo_mol2/fe_4_1_Se2S2C12H24_4ba342db217dc92c7e4e3e6bd1ef22cf_0_Nnegbenzene_-1_oxo_-2
Se        10.62090        6.55440        1.23820
S          8.10040        4.44130        2.05510
Fe         8.88200        5.43700        0.00000
C         11.51000        5.23040        2.26520
C         10.62590        4.68560        3.38070
C          9.60320        3.67210        2.92550
C          7.41370        2.77290        1.43170
C          5.99890        2.93050        0.92890
C         11.99400        6.72120       -0.08070
H         12.29010        5.61320        2.65160
H         11.75820        4.50510        1.70290
H         11.17420        4.29520        4.05280
H         10.14740        5.42070        3.74850
H         10.03660        3.07730        2.32210
H          9.29260        3.18500        3.68100
H          7.95740        2.45430        0.71850
H          7.42850        2.14540        2.14620
H          5.42420        2.97730        1.68570
H          5.76690        2.17370        0.40220
H         11.97060        5.95570       -0.64440
H         12.83830        6.76910        0.35460
Se         7.14310        4.31960       -1.23820
C          6.25400        5.64360       -2.26520
C          7.13810        6.18840       -3.38070
C          8.16080        7.20190       -2.92550
S          9.66360        6.43270       -2.05510
C         11.76510        7.94350       -0.92890
C         10.35030        8.10110       -1.43170
H          9.80660        8.41970       -0.71850
H         10.33550        8.72860       -2.14620
H         12.33980        7.89670       -1.68570
H         11.99710        8.70030       -0.40220
C          5.77000        4.15280        0.08070
H          5.79340        4.91830        0.64440
H          4.92570        4.10490       -0.35460
H          7.72740        7.79670       -2.32210
H          8.47140        7.68900       -3.68100
H          6.58980        6.57880       -4.05280
H          7.61660        5.45330       -3.74850
H          5.47390        5.26080       -2.65160
H          6.00580        6.36890       -1.70290
N          7.66819        6.99891        0.29511
C          6.75784        8.17035        0.51645
C          6.22721        8.85350       -0.57160
C          6.44487        8.57274        1.80960
C          5.38361        9.93903       -0.36650
C          5.60127        9.65827        2.01470
C          5.07064       10.34141        0.92665
H          6.47263        8.53795       -1.58565
H          6.86097        8.03703        2.66281
H          4.96750       10.47473       -1.21971
H          5.35585        9.97380        3.02875
H          4.40912       11.19266        1.08749
H          8.77815        7.45106        0.35468
O          9.85305        4.18747       -0.23609

