14

Cu      -4.04      -2.33       6.60
O      -4.92      -1.27       9.32
O      -2.42      -2.97       7.46
Cu      -5.25      -3.03       8.58
C      -4.23      -0.44       8.64
C      -2.50      -3.44       8.64
O      -4.38      -4.10       5.86
O      -6.87      -2.40       7.72
O      -5.52      -4.75       7.72
O      -5.74      -1.74       5.86
O      -3.78      -0.62       7.46
O      -3.56      -3.62       9.32
C      -5.07      -4.93       6.54
C      -6.80      -1.93       6.54
