14

Cu      10.51       0.00       0.00
C       9.30      -2.48      -0.36
C       9.30      -0.49       2.46
Cu       8.09       0.00       0.00
O       8.16       0.34      -1.91
O      10.44       1.91       0.31
C       9.30       2.48       0.36
C       9.30       0.49      -2.46
O      10.44      -0.34       1.91
O       8.16      -1.91      -0.31
O      10.44      -1.91      -0.31
O       8.16      -0.34       1.91
O       8.16       1.91       0.31
O      10.44       0.34      -1.91
