49

O          8.14850       13.31070        8.79480
O         12.41980        8.14210        6.73410
N         10.15560       10.64100        7.72540
N          7.74650       11.06180        8.48230
N         10.19480        8.11230        7.36770
C          9.89050       11.91540        8.00250
C         10.88080       12.85220        7.81210
C         12.12070       12.41750        7.33470
C         12.34310       11.08570        7.06860
C         11.33180       10.19440        7.28710
C          8.51240       12.16350        8.47620
C          6.34580       11.18290        8.85100
C          6.09300       10.76410       10.28300
C          4.63660       10.97050       10.67610
C          3.66720       10.05350       10.32450
C          2.34420       10.25800       10.67980
C          1.98990       11.35960       11.38180
C          2.92240       12.26470       11.73700
C          4.25690       12.09800       11.37930
C         11.36920        8.69390        7.09790
C         10.11960        6.67720        7.15160
C         10.68450        5.83960        8.29920
C          9.86840        5.82770        9.55790
C          8.65320        5.16870        9.59940
C          7.92330        5.07940       10.75670
C          8.38720        5.65300       11.89090
C          9.55390        6.31790       11.88230
C         10.29860        6.41720       10.70790
H         10.73560       13.77720        8.01350
H         12.82830       13.06060        7.20170
H         13.20330       10.79980        6.73530
H          6.06860       12.10990        8.73620
H          5.81160       10.66090        8.24910
H          6.30860        9.82920       10.38440
H          6.65380       11.25840       10.87880
H          3.92140        9.24370        9.82770
H          1.65700        9.65060       10.37220
H          1.05460       11.53230       11.64790
H          2.69220       13.02690       12.29010
H          4.90790       12.75890       11.63330
H          9.19900        6.42120        7.03930
H         10.59010        6.44500        6.35440
H         10.79120        4.94040        8.00980
H         11.55170        6.19490        8.51530
H          8.34960        4.73800        8.84370
H          7.10410        4.61290       10.75550
H          7.85610        5.60140       12.67710
H          9.89260        6.73680       12.67460
H         11.12840        6.86780       10.68220
