52

N         13.92970        7.34650       13.87680
C         12.88360        6.39670       13.85660
O         12.26270        6.13180       12.82960
C         12.75080        5.85800       15.20750
C         13.72170        6.52390       16.01390
N         14.02580        6.42580       17.30200
C         15.04170        7.26900       17.75080
C         15.40720        7.26250       19.10870
H         14.93910        6.70380       19.71900
C         16.43730        8.05730       19.56360
H         16.67720        8.03480       20.48180
C         17.13210        8.89680       18.68490
H         17.84560        9.43610       19.00610
C         16.78020        8.93850       17.35700
H         17.24800        9.51490       16.76390
C         15.73320        8.13530       16.86500
N         15.41370        8.22500       15.51970
C         14.44250        7.45310       15.15730
C         14.32660        8.13110       12.74750
C         14.41460        9.50930       12.87120
H         14.24330        9.92760       13.70700
C         14.75540       10.27380       11.75860
H         14.80950       11.21910       11.83320
C         15.01500        9.66610       10.54700
H         15.24460       10.19240        9.79100
C         14.93910        8.29080       10.43720
H         15.12390        7.87420        9.60400
C         14.59530        7.51130       11.53700
H         14.54570        6.56580       11.45920
C         11.83660        4.84620       15.58390
C         10.84140        4.36140       14.57390
C          9.68360        5.09690       14.36470
H          9.54740        5.91090       14.83460
C          8.72220        4.64470       13.46800
H          7.92940        5.14760       13.32370
C          8.92510        3.45830       12.78600
H          8.26660        3.14630       12.17580
C         10.08010        2.72480       12.98640
H         10.21380        1.91120       12.51460
C         11.04700        3.17810       13.88070
H         11.84370        2.67870       14.01440
N         11.86810        4.41260       16.82430
C         11.03000        3.46470       17.44420
C          9.97940        2.68970       16.95050
H          9.72240        2.74210       16.03810
C          9.32010        1.83860       17.83040
H          8.59090        1.31120       17.52300
C          9.72110        1.75650       19.15200
H          9.28200        1.17180       19.75970
C         10.78110        2.55070       19.56790
H         11.06950        2.49420       20.47070
N         11.40890        3.39070       18.74100
