16
02/19/2023 11:34, XYZ structure generated by mol3D Class, molSimplify
C 	0.340000	1.084000	-0.003000
N 	-0.964631	0.664988	0.144690
N 	-0.946004	-0.660037	0.112044
N 	0.346686	-0.975289	-0.033073
N 	1.201983	0.052463	-0.094903
C 	0.713588	2.492583	0.001580
N 	1.486453	2.936416	-1.026122
C 	1.820848	4.241982	-1.024936
C 	1.437051	5.136763	-0.038619
C 	0.654012	4.665473	1.009981
C 	0.277561	3.325234	1.028761
H 	0.658668	-1.940713	-0.077636
H 	2.427527	4.565311	-1.866691
H 	1.741686	6.176354	-0.086670
H 	0.340251	5.335482	1.804538
H 	-0.332450	2.937101	1.839145
