17
02/19/2023 11:34, XYZ structure generated by mol3D Class, molSimplify
Fe 	0.000000	0.000000	0.000000
C 	2.308540	1.314793	0.028592
N 	3.642951	1.493587	0.055367
N 	4.152387	0.271949	0.042804
N 	3.164045	-0.607311	0.010132
N 	2.003954	0.000017	-0.000000
C 	1.304296	2.373132	0.029582
N 	0.000000	2.003954	0.000000
C 	-1.007657	2.916614	-0.001378
C 	-0.713771	4.280861	0.028286
C 	0.621817	4.689603	0.059069
C 	1.643229	3.734457	0.059902
H 	3.290299	-1.643123	-0.006286
H 	-2.036257	2.581940	-0.025464
H 	-1.512046	5.011825	0.027328
H 	0.863218	5.744432	0.082263
H 	2.677475	4.053247	0.083910
