219
07/06/2016 12:08, XYZ structure generated by mol3D Class, molSimplify
Au 	6.434958	-1.724242	0.000000
Au 	9.652437	-2.586363	2.355358
Au 	12.869916	-3.448484	4.710717
Au 	7.928195	3.848595	0.000000
Au 	11.145674	2.986474	2.355358
Au 	14.363154	2.124354	4.710717
Au 	9.421433	9.421433	0.000000
Au 	12.638912	8.559312	2.355358
Au 	15.856391	7.697191	4.710717
Au 	10.514558	-5.803842	0.000000
Au 	13.732037	-6.665963	2.355358
Au 	16.949516	-7.528084	4.710717
Au 	12.007795	-0.231005	0.000000
Au 	15.225274	-1.093126	2.355358
Au 	18.442754	-1.955246	4.710717
Au 	13.501033	5.341833	0.000000
Au 	16.718512	4.479712	2.355358
Au 	19.935991	3.617591	4.710717
Au 	14.594158	-9.883442	0.000000
Au 	17.811637	-10.745563	2.355358
Au 	21.029116	-11.607684	4.710717
Au 	16.087395	-4.310605	0.000000
Au 	19.304874	-5.172726	2.355358
Au 	22.522354	-6.034846	4.710717
Au 	17.580633	1.262233	0.000000
Au 	20.798112	0.400112	2.355358
Au 	24.015591	-0.462009	4.710717
Au 	1.608739	-0.431061	0.000000
Au 	4.826219	-1.293181	2.355358
Au 	8.043698	-2.155302	4.710716
Au 	3.101977	5.141777	0.000000
Au 	6.319456	4.279656	2.355358
Au 	9.536935	3.417535	4.710716
Au 	4.595214	10.714614	0.000000
Au 	7.812693	9.852493	2.355358
Au 	11.030172	8.990372	4.710716
Au 	5.688339	-4.510661	0.000000
Au 	8.905819	-5.372781	2.355358
Au 	12.123298	-6.234902	4.710716
Au 	7.181577	1.062177	0.000000
Au 	10.399056	0.200056	2.355358
Au 	13.616535	-0.662065	4.710716
Au 	8.674814	6.635014	0.000000
Au 	11.892293	5.772893	2.355358
Au 	15.109772	4.910772	4.710716
Au 	9.767939	-8.590261	0.000000
Au 	12.985419	-9.452381	2.355358
Au 	16.202898	-10.314502	4.710716
Au 	11.261177	-3.017423	0.000000
Au 	14.478656	-3.879544	2.355358
Au 	17.696135	-4.741665	4.710716
Au 	12.754414	2.555414	0.000000
Au 	15.971893	1.693293	2.355358
Au 	19.189372	0.831172	4.710716
Au 	3.648539	-2.470860	0.000000
Au 	6.866019	-3.332981	2.355358
Au 	10.083498	-4.195102	4.710716
Au 	5.141777	3.101977	0.000000
Au 	8.359256	2.239856	2.355358
Au 	11.576735	1.377735	4.710716
Au 	6.635014	8.674814	0.000000
Au 	9.852493	7.812693	2.355358
Au 	13.069972	6.950572	4.710716
Au 	7.728139	-6.550460	0.000000
Au 	10.945619	-7.412581	2.355358
Au 	14.163098	-8.274702	4.710716
Au 	9.221377	-0.977623	0.000000
Au 	12.438856	-1.839744	2.355358
Au 	15.656335	-2.701865	4.710716
Au 	10.714614	4.595214	0.000000
Au 	13.932093	3.733093	2.355358
Au 	17.149572	2.870972	4.710716
Au 	11.807739	-10.630060	0.000000
Au 	15.025219	-11.492181	2.355358
Au 	18.242698	-12.354302	4.710716
Au 	13.300977	-5.057223	0.000000
Au 	16.518456	-5.919344	2.355358
Au 	19.735935	-6.781465	4.710716
Au 	14.794214	0.515614	0.000000
Au 	18.011693	-0.346507	2.355358
Au 	21.229172	-1.208628	4.710716
Au 	4.395158	0.315558	0.000000
Au 	7.612637	-0.546563	2.355358
Au 	10.830116	-1.408684	4.710716
Au 	5.888395	5.888395	0.000000
Au 	9.105874	5.026274	2.355358
Au 	12.323353	4.164154	4.710716
Au 	7.381633	11.461233	0.000000
Au 	10.599112	10.599112	2.355358
Au 	13.816591	9.736991	4.710716
Au 	8.474758	-3.764042	0.000000
Au 	11.692237	-4.626163	2.355358
Au 	14.909716	-5.488284	4.710716
Au 	9.967995	1.808795	0.000000
Au 	13.185474	0.946674	2.355358
Au 	16.402953	0.084554	4.710716
Au 	11.461233	7.381633	0.000000
Au 	14.678712	6.519512	2.355358
Au 	17.896191	5.657391	4.710716
Au 	12.554358	-7.843642	0.000000
Au 	15.771837	-8.705763	2.355358
Au 	18.989316	-9.567884	4.710716
Au 	14.047595	-2.270805	0.000000
Au 	17.265074	-3.132926	2.355358
Au 	20.482553	-3.995046	4.710716
Au 	15.540833	3.302033	0.000000
Au 	18.758312	2.439912	2.355358
Au 	21.975791	1.577791	4.710716
Co 	15.656338	-2.701797	21.858798
N 	14.030119	-3.978904	21.857997
N 	14.380713	-1.074391	21.861008
N 	16.931953	-4.329201	21.863338
N 	17.282556	-1.424689	21.860649
C 	14.069246	-5.373771	21.858851
C 	12.706201	-5.890053	21.869907
C 	11.858008	-4.807918	21.867101
C 	12.684896	-3.607740	21.865355
H 	12.439274	-6.936411	21.882059
H 	10.778118	-4.816966	21.864405
C 	12.186030	-2.282875	21.856931
C 	15.237054	-6.174561	21.860790
C 	12.468185	0.247323	21.840493
C 	13.549325	1.096641	21.841473
C 	14.750626	0.271178	21.859166
C 	12.985919	-1.114941	21.849550
H 	11.421330	0.512986	21.837208
H 	13.538730	2.176342	21.826006
C 	16.075690	0.771035	21.861156
C 	18.326831	-4.288870	21.857496
C 	18.844508	-5.651202	21.854253
C 	17.763240	-6.500371	21.850173
C 	16.561903	-5.674762	21.862880
H 	19.891290	-5.916931	21.856738
H 	17.773588	-7.580200	21.836540
C 	18.606628	0.486240	21.879239
C 	19.454607	-0.595954	21.881145
C 	18.627741	-1.795991	21.873591
C 	17.243424	-0.029822	21.863095
H 	18.873724	1.532518	21.893287
H 	20.534571	-0.586838	21.883942
C 	19.126628	-3.120858	21.866815
H 	15.113340	-7.199109	21.860651
H 	11.161482	-2.159161	21.856098
H 	16.199405	1.795583	21.861195
H 	20.151175	-3.244573	21.868848
Co 	15.656335	-2.701865	16.858797
N 	17.715771	-2.881304	16.904784
N 	15.476175	-4.761107	16.806447
N 	15.836334	-0.642796	16.917893
N 	13.596873	-2.522453	16.813859
C 	18.639774	-1.836803	16.953995
C 	19.987195	-2.391830	16.985026
C 	19.867485	-3.760990	16.945943
C 	18.444214	-4.071599	16.901289
H 	20.896352	-1.811048	17.033893
H 	20.662123	-4.492291	16.945195
C 	17.903844	-5.379012	16.847638
C 	18.334028	-0.454493	16.981962
C 	15.970325	-7.031987	16.742959
C 	14.600976	-6.912903	16.712823
C 	14.287236	-5.490085	16.757341
C 	16.522444	-5.684407	16.798512
H 	16.553252	-7.941146	16.732038
H 	13.871740	-7.707586	16.659905
C 	12.978437	-4.949346	16.739976
C 	14.790582	0.281142	16.908545
C 	15.343095	1.629032	16.951809
C 	16.712512	1.509827	16.978841
C 	17.025423	0.086139	16.964700
H 	14.760285	2.538208	16.961933
H 	17.442738	2.305142	17.002682
C 	11.324729	-3.012402	16.764106
C 	11.444658	-1.643324	16.802292
C 	12.868048	-1.332577	16.837647
C 	12.672791	-3.567037	16.767946
H 	10.414853	-3.593648	16.741425
H 	10.649918	-0.912024	16.803138
C 	13.408781	-0.024779	16.876107
H 	19.124041	0.208542	17.017573
H 	18.567366	-6.169411	16.844060
H 	12.188426	-5.612378	16.704266
H 	12.745231	0.765591	16.880884
Co 	15.656335	-2.701865	21.858797
N 	17.715771	-2.881304	21.904784
N 	15.476175	-4.761107	21.806447
N 	15.836334	-0.642796	21.917893
N 	13.596873	-2.522453	21.813859
C 	18.639774	-1.836803	21.953995
C 	19.987195	-2.391830	21.985026
C 	19.867485	-3.760990	21.945943
C 	18.444214	-4.071599	21.901289
H 	20.896352	-1.811048	22.033893
H 	20.662123	-4.492291	21.945195
C 	17.903844	-5.379012	21.847638
C 	18.334028	-0.454493	21.981962
C 	15.970325	-7.031987	21.742959
C 	14.600976	-6.912903	21.712823
C 	14.287236	-5.490085	21.757341
C 	16.522444	-5.684407	21.798512
H 	16.553252	-7.941146	21.732038
H 	13.871740	-7.707586	21.659905
C 	12.978437	-4.949346	21.739976
C 	14.790582	0.281142	21.908545
C 	15.343095	1.629032	21.951809
C 	16.712512	1.509827	21.978841
C 	17.025423	0.086139	21.964700
H 	14.760285	2.538208	21.961933
H 	17.442738	2.305142	22.002682
C 	11.324729	-3.012402	21.764106
C 	11.444658	-1.643324	21.802292
C 	12.868048	-1.332577	21.837647
C 	12.672791	-3.567037	21.767946
H 	10.414853	-3.593648	21.741425
H 	10.649918	-0.912024	21.803138
C 	13.408781	-0.024779	21.876107
H 	19.124041	0.208542	22.017573
H 	18.567366	-6.169411	21.844060
H 	12.188426	-5.612378	21.704266
H 	12.745231	0.765591	21.880884
