73
06/27/2016 17:54, XYZ structure generated by mol3D Class, molSimplify
Co 	15.656335	-2.701865	7.419088
N 	17.799331	-2.842100	7.433683
N 	15.501930	-4.815763	7.402583
N 	15.880316	-0.599852	7.438716
N 	13.584473	-2.463621	7.407476
C 	18.697723	-1.850345	7.504859
C 	19.971522	-2.388363	7.550234
C 	19.828065	-3.767370	7.531679
C 	18.471843	-4.016473	7.476046
H 	20.903655	-1.838288	7.606474
H 	20.623438	-4.496059	7.569007
C 	17.849493	-5.399304	7.459940
C 	18.406236	-0.523847	7.529132
C 	16.002974	-6.988510	7.439814
C 	14.622790	-6.863925	7.431387
C 	14.345640	-5.507752	7.419735
C 	16.517413	-5.703143	7.427039
H 	16.562872	-7.915638	7.454536
H 	13.904851	-7.672243	7.435513
C 	13.090773	-4.973135	7.427854
C 	14.863361	0.277389	7.471792
C 	15.370652	1.564051	7.536924
C 	16.754521	1.441107	7.549279
C 	17.032404	0.086432	7.493548
H 	14.802176	2.481426	7.576373
H 	17.468784	2.254040	7.606441
C 	11.423748	-3.024125	7.456729
C 	11.523981	-1.640823	7.475283
C 	12.874215	-1.333794	7.457271
C 	12.722892	-3.503728	7.430498
H 	10.508384	-3.601553	7.466661
H 	10.701550	-0.934980	7.500349
C 	13.399728	-0.082486	7.481025
H 	19.241318	0.172464	7.588794
H 	18.549628	-6.231095	7.484273
H 	12.257822	-5.671662	7.438399
H 	12.704232	0.750055	7.514397
Au 	12.869916	-3.448484	4.710717
Au 	14.363154	2.124354	4.710717
Au 	15.856391	7.697191	4.710717
Au 	16.949516	-7.528084	4.710717
Au 	18.442754	-1.955246	4.710717
Au 	19.935991	3.617591	4.710717
Au 	21.029116	-11.607684	4.710717
Au 	22.522354	-6.034846	4.710717
Au 	24.015591	-0.462009	4.710717
Au 	8.043698	-2.155302	4.710716
Au 	9.536935	3.417535	4.710716
Au 	11.030172	8.990372	4.710716
Au 	12.123298	-6.234902	4.710716
Au 	13.616535	-0.662065	4.710716
Au 	15.109772	4.910772	4.710716
Au 	16.202898	-10.314502	4.710716
Au 	17.696135	-4.741665	4.710716
Au 	19.189372	0.831172	4.710716
Au 	10.083498	-4.195102	4.710716
Au 	11.576735	1.377735	4.710716
Au 	13.069972	6.950572	4.710716
Au 	14.163098	-8.274702	4.710716
Au 	15.656335	-2.701865	4.710716
Au 	17.149572	2.870972	4.710716
Au 	18.242698	-12.354302	4.710716
Au 	19.735935	-6.781465	4.710716
Au 	21.229172	-1.208628	4.710716
Au 	10.830116	-1.408684	4.710716
Au 	12.323353	4.164154	4.710716
Au 	13.816591	9.736991	4.710716
Au 	14.909716	-5.488284	4.710716
Au 	16.402953	0.084554	4.710716
Au 	17.896191	5.657391	4.710716
Au 	18.989316	-9.567884	4.710716
Au 	20.482553	-3.995046	4.710716
Au 	21.975791	1.577791	4.710716
