19
# extracted from Terachem optimization
Fe 0.0013112042 -0.0004065210 0.0012844610
N 0.3907394284 3.0257307286 0.5922017562
H 0.5212128001 4.0144144034 0.7504802389
C 0.2506430733 1.8982565300 0.3691845754
N 3.0191988020 -0.5509151382 0.4962931116
H 4.0054004710 -0.7270204190 0.6226126431
C 1.8964664967 -0.3404065250 0.3070891992
N -0.3879639424 -3.0260695972 -0.5916166716
H -0.5184005687 -4.0145746437 -0.7509758555
C -0.2480161339 -1.8988263920 -0.3673919465
N -3.0173710159 0.5481801610 -0.4911896918
H -4.0039104312 0.7232135027 -0.6164386517
C -1.8941462279 0.3388639817 -0.3034975587
N -0.2089990259 -0.2344476512 2.2512037275
H 0.4340224013 0.2062835534 2.9045024046
C -1.1851121725 -0.9272367825 2.1742321320
N 0.2115925948 0.2371369963 -2.2468269870
H -0.4364133583 -0.1958660037 -2.9004247322
C 1.1942380996 0.9210687683 -2.1718395392
