52
08/07/2018 21:14, XYZ structure generated by mol3D Class, molSimplify
Co 	-0.539564	0.530640	0.082305
N 	-0.406532	2.635296	0.459603
N 	1.584653	0.716254	-0.162979
C 	1.867416	2.166312	-0.335305
C 	1.028414	2.969588	0.652445
H 	1.209377	4.039900	0.511883
H 	1.294598	2.714667	1.682558
H 	1.606087	2.430383	-1.363633
H 	2.929827	2.384464	-0.189616
H 	-0.767517	3.091632	-0.379691
H 	-0.967624	2.966177	1.244061
H 	2.111689	0.335519	0.623040
H 	1.871647	0.201699	-0.995743
N 	-0.631380	-1.601180	-0.183086
N 	-2.655527	0.300093	0.343297
C 	-3.015446	-1.025010	-0.227525
C 	-1.987477	-2.059353	0.217331
H 	-2.222952	-3.035185	-0.218735
H 	-1.994162	-2.165986	1.306321
H 	-3.012094	-0.924200	-1.316231
H 	-4.018795	-1.332037	0.083254
H 	-0.489659	-1.756972	-1.182473
H 	0.091068	-2.128456	0.306302
H 	-2.933663	0.354541	1.323121
H 	-3.143599	1.045542	-0.153404
C 	-0.262995	0.221841	2.047475
N 	-0.096192	0.053714	3.188968
C 	0.103262	-0.141257	4.542103
C 	0.831006	-1.261748	4.978672
C 	1.025419	-1.436490	6.337200
C 	0.515975	-0.526077	7.288573
C 	0.767889	-0.767653	8.775336
C 	0.164315	-2.137698	9.167218
C 	2.295607	-0.783906	9.021466
C 	0.137232	0.319095	9.660802
C 	-0.209382	0.580982	6.811181
C 	-0.421446	0.785095	5.454757
H 	1.230312	-1.970598	4.260789
H 	1.588377	-2.299876	6.671728
H 	-0.916938	-2.156871	8.995634
H 	0.342583	-2.320939	10.231162
H 	0.615765	-2.964243	8.609588
H 	2.750235	0.175540	8.753060
H 	2.797818	-1.572992	8.453004
H 	2.491145	-0.966120	10.082636
H 	0.544360	1.313129	9.445056
H 	0.355639	0.100469	10.709514
H 	-0.952796	0.353321	9.556011
H 	-0.616660	1.300738	7.509301
H 	-0.982797	1.644265	5.102501
