16

H      13.36       5.46      10.20
H      15.91       2.99      13.70
C      17.46       4.23      11.95
C      11.82       4.23      11.95
C      15.34       3.52      12.94
C      13.93       4.93      10.96
O      18.07       4.86      11.05
O      11.21       3.59      12.85
C      15.95       4.23      11.95
C      13.32       4.23      11.95
H      13.36       2.99      13.70
H      15.91       5.46      10.20
O      18.07       3.59      12.85
O      11.21       4.86      11.05
C      15.34       4.93      10.96
C      13.93       3.52      12.94
