16

C       9.57       2.93       8.28
C      12.39       1.30       3.67
H       9.27       0.62       7.02
H      12.69       3.60       4.93
O       9.81       4.06       8.78
O      12.14       0.17       3.18
C      11.94       2.96       5.40
C      10.32       2.49       7.05
C      10.02       1.26       6.55
C      11.64       1.73       4.90
H      10.54      -0.11       4.93
H      11.41       4.34       7.02
C      11.23       3.37       6.55
C      10.72       0.86       5.40
O      13.24       2.08       3.18
O       8.71       2.15       8.78
