16

C      11.94       6.08       0.99
C      10.02       6.60      -0.99
C      10.72       5.38      -0.99
C      11.23       7.30       0.99
C      12.39       3.89       0.00
C       9.57       8.78       0.00
O      13.24       3.69       0.90
O       8.71       8.99      -0.90
O      12.14       3.05      -0.90
C      11.64       5.20       0.00
O       9.81       9.62       0.90
C      10.32       7.48       0.00
H       9.27       6.82      -1.75
H      12.69       5.85       1.75
H      11.41       8.06       1.75
H      10.54       4.62      -1.75
