33
11/03/2022 20:35, XYZ structure generated by mol3D Class, molSimplify
Fe 	0.000000	0.000000	0.000000
C 	3.150795	0.165873	0.746358
N 	3.516682	0.625722	1.961367
N 	4.626743	-0.028862	2.263324
N 	4.939201	-0.831996	1.260327
N 	4.051951	-0.724950	0.286507
C 	2.010273	0.635156	0.000000
N 	1.132975	1.574364	0.597712
C 	0.000000	2.108227	0.000000
C 	-0.302948	1.688475	-1.295228
C 	0.635815	0.900688	-2.097553
C 	1.674960	0.236058	-1.300637
H 	5.769141	-1.464264	1.241761
H 	-0.620339	2.822637	0.524271
H 	-1.177342	2.102230	-1.781102
H 	0.442832	0.643655	-3.130555
H 	2.317569	-0.472821	-1.808066
C 	-0.728174	0.416744	2.783265
N 	-1.958452	0.866225	2.462211
N 	-2.256476	1.754104	3.398951
N 	-1.250601	1.838765	4.250259
N 	-0.275951	1.015980	3.898378
C 	0.000000	-0.576750	2.027802
N 	-0.577486	-1.138893	0.842464
C 	0.000000	-2.108227	0.000000
C 	1.266886	-2.560726	0.368646
C 	1.856593	-2.095607	1.558668
C 	1.271361	-1.070569	2.344782
H 	-1.228496	2.464017	5.084070
H 	-0.515064	-2.474177	-0.877929
H 	1.766903	-3.312832	-0.227140
H 	2.818230	-2.494951	1.852646
H 	1.776169	-0.724689	3.237466
