49
11/03/2022 20:35, XYZ structure generated by mol3D Class, molSimplify
Fe 	0.000000	0.000000	0.000000
C 	3.150795	0.165873	0.746358
N 	3.519694	0.630212	1.958625
N 	4.632060	-0.021366	2.259339
N 	4.942649	-0.827604	1.258289
N 	4.052267	-0.725257	0.287213
C 	2.010273	0.635156	0.000000
N 	1.132975	1.574364	0.597712
C 	0.000000	2.108227	0.000000
C 	-0.302948	1.688475	-1.295228
C 	1.423477	1.498932	-1.756627
C 	1.674960	0.236058	-1.300637
H 	5.773701	-1.458353	1.238369
H 	-0.620339	2.822637	0.524271
H 	-1.021467	2.513488	-1.688585
H 	2.019842	1.517832	-2.699169
H 	2.381189	-0.487483	-1.715716
C 	-0.728174	0.416744	2.783265
N 	-1.962494	0.868306	2.531350
N 	-2.251030	1.762414	3.450558
N 	-1.227762	1.843998	4.272168
N 	-0.259276	1.019747	3.896067
C 	0.000000	-0.576750	2.027802
N 	-0.577486	-1.138893	0.842464
C 	0.000000	-2.108227	0.000000
C 	1.266886	-2.560726	0.368646
C 	1.856168	-2.095861	1.558856
C 	1.271361	-1.070569	2.344782
H 	-1.206924	2.471819	5.101392
H 	-0.515064	-2.474177	-0.877929
H 	1.766610	-3.313544	-0.226450
H 	2.817106	-2.496179	1.853700
H 	1.776348	-0.725009	3.237398
C 	-0.030282	0.740278	-3.185121
N 	-0.457710	1.964202	-3.693064
N 	0.267215	2.256303	-4.744683
N 	1.003864	1.207333	-5.021433
N 	0.800931	0.222891	-4.140552
C 	-0.523214	0.000000	-2.042270
N 	-1.514923	0.579989	-1.159860
C 	-2.108227	0.000000	0.000000
C 	-1.660450	-1.286867	0.300635
C 	-2.034768	-1.705640	-0.917017
C 	-0.130569	-1.290449	-1.668403
H 	1.678184	1.206089	-5.813985
H 	-2.845601	0.524859	0.592199
H 	-2.415849	-1.824420	1.117399
H 	-2.296840	-2.899096	-0.700126
H 	0.566897	-1.836246	-2.360355
