33
11/03/2022 20:35, XYZ structure generated by mol3D Class, molSimplify
Fe 	0.000000	0.000000	0.000000
C 	3.150795	0.165873	0.746358
N 	3.458388	0.558158	1.998069
N 	4.563463	-0.101471	2.307731
N 	4.910956	-0.862885	1.283659
N 	4.052002	-0.722581	0.289210
C 	2.010273	0.635156	0.000000
N 	1.132975	1.574364	0.597712
C 	0.000000	2.108227	0.000000
C 	-0.302948	1.688475	-1.295228
C 	0.635335	0.900178	-2.097824
C 	1.674960	0.236058	-1.300637
H 	5.746860	-1.487405	1.263407
H 	-0.620339	2.822637	0.524271
H 	-1.177735	2.101802	-1.781019
H 	0.441257	0.641960	-3.130482
H 	2.317258	-0.473253	-1.808074
C 	-0.728174	0.416744	2.783265
N 	-1.951385	0.874525	2.454024
N 	-2.255325	1.760138	3.387700
N 	-1.254270	1.835399	4.248766
N 	-0.280401	1.009858	3.904258
C 	-0.000000	-0.576750	2.027802
N 	-0.577486	-1.138893	0.842464
C 	0.000000	-2.108227	0.000000
C 	1.266886	-2.560726	0.368646
C 	1.889575	-2.044692	1.527448
C 	1.271361	-1.070569	2.344782
H 	-1.236760	2.460607	5.083899
H 	-0.515064	-2.474177	-0.877929
H 	1.770444	-3.305967	-0.233504
H 	2.872816	-2.408369	1.796605
H 	1.786279	-0.703289	3.223381
