17
11/03/2022 20:35, XYZ structure generated by mol3D Class, molSimplify
Fe 	0.000000	0.000000	0.000000
C 	3.150795	0.165873	0.746358
N 	3.456314	0.562004	1.997206
N 	4.559234	-0.096949	2.310908
N 	4.907059	-0.861725	1.289478
N 	4.050258	-0.724785	0.291770
C 	2.010273	0.635156	0.000000
N 	1.132975	1.574364	0.597712
C 	0.000000	2.108227	0.000000
C 	-0.302948	1.688475	-1.295228
C 	0.532837	0.757359	-1.938135
C 	1.674960	0.236058	-1.300637
H 	5.741955	-1.486738	1.275050
H 	-0.620339	2.822637	0.524271
H 	-1.177017	2.078382	-1.800912
H 	0.290749	0.436506	-2.943081
H 	2.299221	-0.479704	-1.820133
