16
11/03/2022 20:35, XYZ structure generated by mol3D Class, molSimplify
C 	0.340000	1.084000	-0.003000
N 	-0.966444	0.664788	0.124397
N 	-0.946383	-0.660767	0.094646
N 	0.348464	-0.974619	-0.029026
N 	1.204396	0.053289	-0.078088
C 	0.710686	2.493176	0.002203
N 	1.480706	2.937500	-1.028261
C 	1.817400	4.246123	-1.029520
C 	1.436282	5.141264	-0.040696
C 	0.658002	4.667331	1.008773
C 	0.280805	3.326027	1.031052
H 	0.662434	-1.940506	-0.067730
H 	2.419139	4.569468	-1.872818
H 	1.741218	6.180814	-0.090061
H 	0.347347	5.336534	1.807654
H 	-0.322812	2.937496	1.843467
