28
11/03/2022 20:37, XYZ structure generated by mol3D Class, molSimplify
Co 	-0.562776	0.563502	-0.060461
N 	-0.444412	2.678387	0.441105
N 	1.616382	0.798855	-0.164590
C 	1.869951	2.261347	-0.273747
C 	0.980740	3.010639	0.710658
H 	1.162588	4.087656	0.636685
H 	1.204456	2.703478	1.736640
H 	1.632055	2.555731	-1.299784
H 	2.921568	2.503807	-0.090448
H 	-0.769283	3.172388	-0.391446
H 	-1.037342	2.985142	1.212095
H 	2.096744	0.414760	0.649453
H 	1.990837	0.316580	-0.981816
N 	-0.588652	-1.607524	-0.255257
N 	-2.683177	0.207548	0.295587
C 	-2.994969	-1.138888	-0.256932
C 	-1.915889	-2.118431	0.185262
H 	-2.117079	-3.115761	-0.218160
H 	-1.893112	-2.195513	1.276664
H 	-3.006453	-1.051014	-1.346716
H 	-3.980988	-1.487037	0.066323
H 	-0.465054	-1.778569	-1.255118
H 	0.162352	-2.108081	0.219744
H 	-2.924555	0.246151	1.285946
H 	-3.243867	0.919478	-0.173331
C 	-0.257634	0.230252	2.077432
N 	-0.088597	0.064552	3.221050
C 	0.113373	-0.128148	4.575329
