51
05/08/2019 18:10, XYZ structure generated by mol3D Class, molSimplify
Fe 	0.000000	0.000000	0.000000
C 	-0.042851	5.177480	0.097489
C 	0.824816	4.598278	-0.745879
C 	0.902986	3.101373	-0.854156
N 	0.000000	2.358708	0.000000
C 	-0.904936	3.018314	0.876841
C 	-0.942393	4.356545	0.939297
H 	1.480375	5.206270	-1.361169
H 	1.586060	2.553864	-1.533007
H 	-1.571529	2.431184	1.499358
H 	-1.639814	4.843421	1.613830
Cl 	-0.119512	6.929448	0.207932
C 	4.521213	1.708587	-0.564080
C 	4.061371	0.931663	-1.550876
C 	2.927258	-0.052721	-1.344662
N 	2.358708	0.000000	0.000000
C 	2.907118	0.822310	1.028424
C 	3.932816	1.641241	0.780978
H 	5.340708	2.394615	-0.753513
H 	4.518379	1.003706	-2.533258
H 	2.497549	0.793012	2.027931
H 	4.334773	2.263664	1.574237
C 	3.411131	-1.466717	-1.668807
O 	2.335461	-2.357807	-1.627793
H 	3.841539	-1.472326	-2.695435
H 	4.188576	-1.769132	-0.930814
H 	2.711745	-3.255812	-1.819467
C 	-0.214318	-5.162285	0.183405
C 	0.664006	-4.554638	0.993322
C 	0.828643	-3.060915	0.958571
N 	0.000000	-2.358708	0.000000
C 	-0.920569	-3.049159	-0.836178
C 	-1.039262	-4.382118	-0.764802
H 	-0.323427	-6.241489	0.220158
H 	1.263448	-5.141462	1.681599
H 	1.548343	-2.488612	1.578783
H 	-1.531225	-2.489601	-1.536674
H 	-1.745184	-4.897214	-1.408557
C 	-5.170668	-0.138723	-0.116716
C 	-4.561535	0.754568	-0.909326
C 	-3.064069	0.886141	-0.902536
N 	-2.358708	0.000000	0.000000
C 	-3.051045	-0.931362	0.822632
C 	-4.387945	-1.014406	0.782558
H 	-6.252562	-0.222909	-0.132122
H 	-5.150029	1.390113	-1.562879
H 	-2.488174	1.602337	-1.523649
H 	-2.489538	-1.580005	1.486556
H 	-4.904323	-1.729817	1.414902
Cl 	0.000000	0.000000	2.439952
Cl 	0.000000	0.000000	-2.499759
