20
10/26/2021 14:19, XYZ structure generated by mol3D Class, molSimplify
Fe 	0.000000	0.000000	0.000000
C 	-2.030000	-0.000403	-0.000844
H 	-2.503155	1.002409	-0.084108
H 	-2.384410	-0.597720	-0.873535
H 	-2.468870	-0.478994	0.901245
C 	2.030000	-0.000403	-0.000844
H 	2.498208	0.932095	-0.383926
H 	2.485549	-0.179411	0.997592
H 	2.397299	-0.822691	-0.655357
C 	0.000000	1.560749	-1.298061
H 	-0.965753	1.848155	-1.768161
H 	0.378224	2.466135	-0.770972
H 	0.698881	1.354320	-2.140609
C 	0.000000	0.337090	2.001817
H 	-0.966082	0.604010	2.483819
H 	0.373869	-0.573502	2.522596
H 	0.701434	1.167455	2.245856
O 	0.000000	-1.984703	-0.745222
H 	0.506922	-2.382254	-1.499582
H 	-0.578193	-2.722990	-0.411905
