51
02/20/2023 18:44, XYZ structure generated by mol3D Class, molSimplify
Fe 	0.000000	0.000000	0.000000
C 	-0.054143	5.211994	0.002163
C 	1.114714	4.551162	-0.000100
C 	1.141445	3.091515	-0.002517
N 	0.000000	2.358708	0.000000
C 	-1.141445	3.098629	0.002517
C 	-1.275022	4.441674	0.003072
H 	2.063465	5.070724	0.000059
H 	2.125942	2.633824	-0.006336
H 	-2.087045	2.555601	0.004505
H 	-2.236948	4.931210	0.004623
Cl 	-0.136468	6.929052	0.005342
C 	5.214504	0.153001	0.028462
C 	4.559928	-0.522137	0.978551
C 	3.099080	-0.633170	0.952384
N 	2.358708	0.000000	0.000000
C 	3.102387	0.633170	-0.952384
C 	4.442437	0.759609	-1.030129
H 	6.290361	0.261150	0.028734
H 	5.094888	-0.988091	1.799057
H 	2.564646	1.105924	-1.772974
H 	4.933234	1.288181	-1.836647
C 	2.418179	-1.252061	2.141236
O 	1.287195	-2.052014	1.809366
H 	3.104156	-1.915360	2.675732
H 	2.110870	-0.461185	2.835740
H 	0.625959	-1.845429	2.483935
C 	-0.000502	-5.155806	-0.000268
C 	-1.180219	-4.452940	0.222440
C 	-1.129949	-3.068051	0.211168
N 	0.000000	-2.358708	0.000000
C 	1.129949	-3.068557	-0.211168
C 	1.179095	-4.453477	-0.222353
H 	-0.000947	-6.241998	-0.000405
H 	-2.115659	-4.970590	0.400012
H 	-2.024406	-2.474393	0.376697
H 	2.024562	-2.475422	-0.376216
H 	2.114817	-4.971646	-0.399594
C 	-5.155806	-0.000528	-0.000212
C 	-4.452940	-0.588231	-1.047082
C 	-3.068051	-0.564553	-1.001327
N 	-2.358708	0.000000	0.000000
C 	-3.068557	0.564553	1.001327
C 	-4.453477	0.587576	1.046165
H 	-6.241998	-0.000919	-0.000465
H 	-4.970590	-1.053493	-1.877811
H 	-2.474393	-1.012697	-1.792921
H 	-2.475422	1.013165	1.792731
H 	-4.971646	1.053271	1.876898
Cl 	0.000000	0.000000	2.439952
Cl 	0.000000	0.000000	-2.499759
