41
02/20/2023 18:33, XYZ structure generated by mol3D Class, molSimplify
Co 	0.000020	0.000000	0.000000
N 	-0.696681	-1.342795	-1.442085
N 	-0.942467	-1.006203	1.570788
C 	-0.603661	-1.481444	-2.781275
H 	0.003559	-0.731913	-3.280272
C 	-1.221099	-2.488349	-3.483482
H 	-1.117412	-2.562098	-4.559405
C 	-1.975229	-3.394712	-2.759502
H 	-2.482679	-4.207998	-3.271387
C 	-2.082413	-3.260875	-1.366867
H 	-2.689072	-3.996789	-0.855363
C 	-2.240804	-3.006095	1.625785
H 	-2.727898	-3.863478	1.179158
C 	-2.346774	-2.873612	3.015224
H 	-2.901349	-3.609629	3.590708
C 	-1.742777	-1.802473	3.652368
H 	-1.808065	-1.675018	4.726766
C 	-1.052685	-0.903196	2.874011
H 	-0.554405	-0.042629	3.309804
C 	-1.432155	-2.220018	-0.684314
C 	-1.532387	-2.065753	0.861362
N 	2.090020	0.000000	0.000000
N 	-0.123198	2.033234	-0.467845
C 	3.069674	-0.900181	0.227256
H 	2.727487	-1.909680	0.429646
C 	4.407352	-0.584501	0.208098
H 	5.160612	-1.340135	0.394891
C 	4.743562	0.731767	-0.057255
H 	5.787326	1.029129	-0.082549
C 	3.733025	1.677347	-0.293135
H 	4.055916	2.691243	-0.490715
C 	1.557071	3.676268	-0.871531
H 	2.578245	4.023402	-0.959929
C 	0.546382	4.616716	-1.106036
H 	0.806406	5.640562	-1.358859
C 	-0.782612	4.239996	-1.015891
H 	-1.584818	4.945728	-1.192010
C 	-1.053400	2.928897	-0.694382
H 	-2.072121	2.563717	-0.609291
C 	2.376743	1.314697	-0.268822
C 	1.244436	2.349505	-0.539639
