56
08/10/2020 15:24, XYZ structure generated by mol3D Class, molSimplify
Pd 	0.000000	0.000000	0.000000
Pd 	0.000000	0.000000	3.991000
Pd 	0.000000	3.991000	0.000000
Pd 	0.000000	3.991000	3.991000
Pd 	0.000000	7.982000	0.000000
Pd 	0.000000	7.982000	3.991000
Pd 	3.991000	0.000000	0.000000
Pd 	3.991000	0.000000	3.991000
Pd 	3.991000	3.991000	0.000000
Pd 	3.991000	3.991000	3.991000
Pd 	3.991000	7.982000	0.000000
Pd 	3.991000	7.982000	3.991000
Pd 	7.982000	0.000000	0.000000
Pd 	7.982000	0.000000	3.991000
Pd 	7.982000	3.991000	0.000000
Pd 	7.982000	3.991000	3.991000
Pd 	7.982000	7.982000	0.000000
Pd 	7.982000	7.982000	3.991000
Pd 	0.000000	1.995500	1.995500
Pd 	0.000000	5.986500	1.995500
Pd 	0.000000	9.977500	1.995500
Pd 	3.991000	1.995500	1.995500
Pd 	3.991000	5.986500	1.995500
Pd 	3.991000	9.977500	1.995500
Pd 	7.982000	1.995500	1.995500
Pd 	7.982000	5.986500	1.995500
Pd 	7.982000	9.977500	1.995500
Pd 	1.995500	0.000000	1.995500
Pd 	1.995500	3.991000	1.995500
Pd 	1.995500	7.982000	1.995500
Pd 	5.986500	0.000000	1.995500
Pd 	5.986500	3.991000	1.995500
Pd 	5.986500	7.982000	1.995500
Pd 	9.977500	0.000000	1.995500
Pd 	9.977500	3.991000	1.995500
Pd 	9.977500	7.982000	1.995500
Pd 	1.995500	1.995500	0.000000
Pd 	1.995500	1.995500	3.991000
Pd 	1.995500	5.986500	0.000000
Pd 	1.995500	5.986500	3.991000
Pd 	1.995500	9.977500	0.000000
Pd 	1.995500	9.977500	3.991000
Pd 	5.986500	1.995500	0.000000
Pd 	5.986500	1.995500	3.991000
Pd 	5.986500	5.986500	0.000000
Pd 	5.986500	5.986500	3.991000
Pd 	5.986500	9.977500	0.000000
Pd 	5.986500	9.977500	3.991000
Pd 	9.977500	1.995500	0.000000
Pd 	9.977500	1.995500	3.991000
Pd 	9.977500	5.986500	0.000000
Pd 	9.977500	5.986500	3.991000
Pd 	9.977500	9.977500	0.000000
Pd 	9.977500	9.977500	3.991000
C 	4.988750	4.988750	5.961026
O 	4.988750	4.988750	7.018024
