49
10/18/2018 23:08, XYZ structure generated by mol3D Class, molSimplify
Fe 	0.000000	0.000000	0.000000
C 	2.310989	1.308197	0.057208
N 	3.644447	1.487945	0.110756
N 	4.155697	0.267076	0.085425
N 	3.169258	-0.612309	0.019319
H 	3.295928	-1.647671	-0.012750
N 	2.003954	0.000006	0.000000
C 	1.306952	2.366485	0.059601
N 	0.000000	2.003954	0.000000
C 	-1.000889	2.924905	-0.002340
C 	-0.695074	4.286405	0.058383
C 	0.641865	4.684610	0.120807
C 	1.654599	3.723018	0.121684
H 	-2.034074	2.613479	-0.051502
H 	-1.486123	5.025021	0.056877
H 	0.892597	5.736401	0.168222
H 	2.690843	4.033254	0.170073
C 	-0.041872	-1.304681	2.313778
N 	-0.081841	-1.484884	3.648036
N 	-0.063490	-0.264527	4.160348
N 	-0.014403	0.615184	3.173718
H 	0.008989	1.650836	3.299779
N 	0.000000	-0.000006	2.003954
C 	-0.043254	-2.363182	1.309476
N 	0.000000	-2.003954	0.000000
C 	0.001884	-2.929476	-0.996809
C 	-0.042078	-4.290333	-0.685825
C 	-0.087577	-4.684406	0.652662
C 	-0.088351	-3.719344	1.661738
H 	0.039008	-2.621502	-2.031489
H 	-0.040428	-5.031678	-1.474322
H 	-0.121786	-5.735727	0.907494
H 	-0.123509	-4.026897	2.699317
C 	-1.304680	-0.041863	-2.313778
N 	-1.484905	-0.081588	-3.647986
N 	-0.264559	-0.063257	-4.160338
N 	0.615185	-0.014397	-3.173717
H 	1.650781	0.009040	-3.299958
N 	-0.000006	0.000000	-2.003954
C 	-2.363181	-0.043249	-1.309476
N 	-2.003954	0.000000	0.000000
C 	-2.929478	0.001878	0.996808
C 	-4.290263	-0.041518	0.685828
C 	-4.684308	-0.086750	-0.652647
C 	-3.719284	-0.087820	-1.661709
H 	-2.621421	0.039115	2.031421
H 	-5.031589	-0.039651	1.474316
H 	-5.735625	-0.120606	-0.907481
H 	-4.026841	-0.122790	-2.699282
