86
03/26/2019 17:39, XYZ structure generated by mol3D Class, molSimplify
Co 	0.000000	0.000000	0.000000
N 	-0.000952	2.067750	-0.001425
N 	2.067766	-0.000950	0.001425
N 	-2.067764	0.000952	0.001425
N 	0.000950	-2.067751	-0.001425
C 	-1.082930	2.893753	-0.019487
C 	-0.639000	4.209602	-0.006582
C 	0.721536	4.178997	-0.003866
C 	1.104517	2.848567	0.017298
H 	-1.212659	5.123926	0.002002
H 	1.341693	5.062059	-0.014903
C 	2.531676	2.389913	0.018460
C 	-2.399274	2.525468	-0.018746
C 	4.222586	0.650896	0.016946
C 	4.206943	-0.701579	-0.006302
C 	2.878126	-1.097276	0.001121
C 	2.903341	1.077138	0.002878
H 	5.131123	1.233265	0.039597
H 	5.101726	-1.305114	-0.025027
C 	2.476374	-2.400986	-0.017379
C 	-2.892687	-1.072328	-0.007773
C 	-4.210240	-0.648789	-0.001486
C 	-4.190938	0.710085	-0.021796
C 	-2.861928	1.097489	-0.000945
H 	-5.113364	-1.238999	0.013599
H 	-5.076987	1.325591	-0.045487
C 	0.639934	-4.254425	0.018994
C 	-0.714394	-4.294438	0.028127
C 	-1.160440	-2.902217	0.030836
C 	1.039261	-2.839313	-0.020619
H 	1.259975	-5.137737	0.033807
H 	-1.289039	-5.208547	0.034786
C 	-2.467481	-2.509180	0.020903
C 	3.591326	3.463288	0.028128
C 	4.606615	3.493947	-0.950400
C 	5.582413	4.494761	-0.935275
C 	5.561424	5.478613	0.054527
C 	4.563564	5.464173	1.030337
C 	3.584794	4.466220	1.018179
H 	4.636752	2.748492	-1.735408
H 	6.354382	4.508270	-1.693808
H 	6.318002	6.252514	0.065001
H 	4.548664	6.226247	1.798776
H 	2.826518	4.469618	1.791456
C 	-3.465998	3.590750	-0.028882
C 	-4.485915	3.592680	0.943723
C 	-5.477225	4.578209	0.937376
C 	-5.467976	5.574811	-0.039697
C 	-4.466769	5.587963	-1.012012
C 	-3.472450	4.605425	-1.008459
H 	-4.507748	2.836723	1.718911
H 	-6.252385	4.569704	1.692719
H 	-4.461680	6.359147	-1.771445
H 	-2.713352	4.629897	-1.780440
C 	-3.548796	-3.557445	0.038054
C 	-3.559372	-4.574790	1.014792
C 	-4.567290	-5.543299	1.026671
C 	-5.578485	-5.513675	0.065293
C 	-5.584075	-4.514516	-0.909040
C 	-4.579183	-3.542858	-0.923478
H 	-2.793764	-4.612086	1.779685
H 	-4.565022	-6.316285	1.784290
H 	-6.357766	-6.264716	0.075463
H 	-6.366882	-4.493362	-1.656217
H 	-4.599083	-2.786009	-1.697641
C 	3.511534	-3.496103	-0.020418
C 	4.516423	-3.551120	0.967575
C 	5.470348	-4.572843	0.958600
C 	5.437207	-5.553318	-0.034332
C 	4.449006	-5.514546	-1.019391
C 	3.492101	-4.495520	-1.013409
H 	4.554969	-2.808187	1.754705
H 	6.234711	-4.605190	1.724224
H 	4.424607	-6.274118	-1.790054
H 	2.740427	-4.480036	-1.792968
H 	6.176822	-6.343491	-0.040031
H 	-6.236738	6.336672	-0.043531
C 	0.450622	-0.441949	4.201087
C 	0.752971	-0.755309	2.896146
N 	0.000000	0.000000	2.069739
C 	-0.748241	0.760679	2.896969
N 	-0.492687	0.510591	4.192993
H 	-0.936972	0.964318	5.021455
H 	0.886074	-0.876242	5.091188
H 	1.477067	-1.488588	2.571832
H 	-1.471767	1.489210	2.560039
