25
03/26/2019 17:41, XYZ structure generated by mol3D Class, molSimplify
Zr 	0.000000	0.000000	0.000000
O 	-1.577372	-1.577372	-0.420354
H 	-1.442325	-2.550256	-0.545532
H 	-2.550242	-1.442897	-0.546246
O 	-1.577372	1.577372	0.420354
H 	-2.550233	1.442904	0.546324
H 	-1.442301	2.550248	0.545565
O 	-0.838629	-0.838629	1.935537
H 	-0.582092	-1.688427	2.374693
H 	-1.688532	-0.582006	2.374441
O 	-0.838629	0.838629	-1.935537
H 	-1.688534	0.582015	-2.374444
H 	-0.582090	1.688433	-2.374680
O 	1.577372	-1.577372	0.420354
H 	1.442981	-2.549982	0.548325
H 	2.550063	-1.441792	0.546450
O 	1.577372	1.577372	-0.420354
H 	2.550082	1.441917	-0.546437
H 	1.442903	2.550010	-0.548028
O 	0.838629	-0.838629	-1.935537
H 	0.582049	-1.688538	-2.374454
H 	1.688420	-0.582046	-2.374682
O 	0.838629	0.838629	1.935537
H 	1.688419	0.582049	2.374687
H 	0.582041	1.688535	2.374456
