61
03/26/2019 17:43, XYZ structure generated by mol3D Class, molSimplify
Fe 	0.000000	0.000000	0.000000
N 	2.055327	3.215236	-0.106603
C 	2.780070	2.551305	0.894012
C 	2.342660	1.247475	0.963607
C 	1.330793	1.080725	-0.087468
C 	1.128625	2.286432	-0.617479
H 	2.113370	4.216098	-0.341592
H 	3.528222	3.007736	1.527964
H 	2.686717	0.497957	1.663597
H 	1.895990	0.577373	-0.866953
H 	0.316743	2.543921	-1.284729
N 	2.351451	-2.409395	-1.321217
C 	1.526062	-3.369795	-0.869287
C 	1.763297	-3.595756	0.471146
C 	2.773549	-2.733226	0.843182
C 	3.114906	-2.017330	-0.285069
H 	2.392657	-2.036900	-2.295446
H 	0.791817	-3.879200	-1.479624
H 	1.256278	-4.308760	1.107153
H 	3.212743	-2.637539	1.827159
H 	3.876995	-1.251782	-0.344674
N 	-1.893421	-3.456488	0.537444
C 	-3.208159	-3.419946	0.257048
C 	-3.776252	-2.301404	0.830272
C 	-2.760804	-1.635413	1.484971
C 	-1.612332	-2.373389	1.284554
H 	-1.218616	-4.190796	0.230493
H 	-3.726439	-4.164515	-0.332616
H 	-4.814777	-2.004193	0.776745
H 	-2.850132	-0.714502	2.044321
H 	-0.627887	-2.131476	1.662681
N 	-2.850421	2.154368	-1.283176
C 	-2.679906	3.390300	-0.781101
C 	-3.450242	3.543282	0.352978
C 	-4.112651	2.347889	0.543494
C 	-3.721484	1.513311	-0.482842
H 	-2.391208	1.766126	-2.136251
H 	-2.031386	4.140268	-1.214431
H 	-3.519733	4.427247	0.972516
H 	-4.803099	2.111456	1.341811
H 	-4.054630	0.495303	-0.634667
N 	-0.930736	1.711255	2.247012
C 	-0.587903	2.993971	2.459351
C 	0.070258	3.106939	3.665985
C 	0.126983	1.837368	4.203615
C 	-0.498610	1.000035	3.303781
H 	-1.436010	1.336004	1.415345
H 	-0.802125	3.804179	1.775131
H 	0.465000	4.013338	4.104578
H 	0.574893	1.553957	5.146570
H 	-0.629692	-0.067821	3.415341
N 	-0.885355	-1.533089	-4.212524
C 	-2.122296	-2.059377	-4.157151
C 	-2.676632	-1.818176	-2.917432
C 	-1.733587	-1.117411	-2.195695
C 	-0.641396	-0.957318	-3.021609
H 	-0.235585	-1.564831	-5.028895
H 	-2.597090	-2.588970	-4.972550
H 	-3.658555	-2.118522	-2.577137
H 	-1.833648	-0.761639	-1.181574
H 	0.278371	-0.448138	-2.766654
