44
5fad73dd2b6428eefef6b38f
Cu      11.744500       3.786200        3.439900
Cl      13.835200       4.761600        2.599900
N       12.257100       3.715000        5.341500
C       12.347500       5.084500        5.949800
H       12.113200       5.052800        6.889700
H       13.250100       5.431200        5.867900
N       12.204600       1.853300        2.990300
C       13.471300       2.944000        5.672200
H       13.596100       2.948500        6.634200
H       14.240700       3.378100        5.272100
N       10.514900       4.030900        1.918400
C       13.411800       1.516700        5.194000
H       12.600800       1.107900        5.533400
H       14.164600       1.031100        5.565200
C       13.435600       1.374600        3.694000
H       14.197900       1.867700        3.350900
H       13.570000       0.438700        3.476200
C       11.060700       0.982700        3.379800
H       11.310500       0.061800        3.278600
H       10.306800       1.174300        2.816800
H       10.827700       1.151700        4.295600
C       12.492500       1.693100        1.533700
H       12.710200       0.762700        1.366000
H       13.278600       2.218900        1.317800
C       11.378300       2.096800        0.601500
H       10.576700       1.605400        0.842500
H       11.619700       1.840500        -0.301700
C       11.061900       3.578300        0.617900
H       11.870600       4.077500        0.423200
H       10.418600       3.773000        -0.081900
C       10.003600       5.440200        1.784400
H       10.500600       5.912000        1.099000
H       9.065300        5.434200        1.537600
C       10.183100       6.100600        3.093500
C       11.010800       5.462100        3.983200
C       11.397300       5.946500        5.209500
C       10.895500       7.194800        5.571000
H       11.128500       7.570200        6.389400
C       10.047600       7.877700        4.714000
H       9.712200        8.705200        4.972300
C       9.693200        7.360600        3.491600
H       9.129500        7.841500        2.927700
H       9.775200        3.477600        2.130400
H       11.487700       3.135400        5.649000
