20

Cu      11.744500       3.786200        3.439900
Cl      13.835200       4.761600        2.599900
N       12.257100       3.715000        5.341500
C       12.347500       5.084500        5.949800
N       12.204600       1.853300        2.990300
C       13.471300       2.944000        5.672200
N       10.514900       4.030900        1.918400
C       13.411800       1.516700        5.194000
C       13.435600       1.374600        3.694000
C       11.060700       0.982700        3.379800
C       12.492500       1.693100        1.533700
C       11.378300       2.096800        0.601500
C       11.061900       3.578300        0.617900
C       10.003600       5.440200        1.784400
C       10.183100       6.100600        3.093500
C       11.010800       5.462100        3.983200
C       11.397300       5.946500        5.209500
C       10.895500       7.194800        5.571000
C       10.047600       7.877700        4.714000
C       9.693200        7.360600        3.491600
