31
# extracted from Terachem optimization
Co 0.0001258581 -0.0004457259 -0.2079010234
O -0.3928979614 1.9842508591 0.1824176872
C 0.5094807176 2.8690131396 0.1058099784
C 0.0270705665 4.3035875281 0.1426877119
C 1.8970074935 2.6200015027 -0.0128594841
C 2.4963458258 1.3598786252 -0.0280215674
O 1.8966230590 0.2257532905 0.0412263957
C 4.0005841763 1.2456146722 -0.1211229964
H -0.6917063809 4.4236899763 0.9590603765
H -0.5042255771 4.5223556556 -0.7911671829
H 0.8435124112 5.0199752556 0.2612022937
H 4.4926756285 2.2205675579 -0.1011293555
H 4.2611080721 0.7261475485 -1.0500326331
H 4.3717207754 0.6319440126 0.7064407215
H 2.5525076003 3.4797902490 -0.0766514550
O 0.3937071572 -1.9847717043 0.1746186936
C -0.5089133730 -2.8697229064 0.1024356705
C -0.0260797439 -4.3041661370 0.1383863635
C -1.8968755744 -2.6209858034 -0.0106274905
C -2.4963197455 -1.3608316794 -0.0259409249
O -1.8965815683 -0.2266161369 0.0396889655
C -4.0009007600 -1.2469195861 -0.1143087442
H 0.6934722118 -4.4243332218 0.9540909688
H 0.5045119574 -4.5224954333 -0.7959551328
H -0.8421859586 -5.0208240897 0.2575095255
H -4.4925868376 -2.2220840116 -0.0948602456
H -4.2645223111 -0.7254080811 -1.0411634790
H -4.3696952143 -0.6352919886 0.7158428924
H -2.5525635132 -3.4808707048 -0.0710101205
C 0.0002254819 0.0010868287 2.2172895595
O 0.0024495218 0.0103717715 3.3516243266
