31
# extracted from Terachem optimization
Co 0.0643854820 -0.0625627079 -0.6997733669
O -0.3195964325 1.8699289751 -0.2894777503
C 0.5487356105 2.7605410232 -0.0015243911
C -0.0147941683 4.1268864177 0.3221682982
C 1.9375826934 2.5591539594 0.0622338888
C 2.5773194362 1.3312706262 -0.1718590708
O 1.9903778635 0.2402228102 -0.4765575018
C 4.0820284436 1.2413573926 -0.0512379805
H -0.6602546768 4.0477979011 1.2046446271
H -0.6456756739 4.4652041624 -0.5067253508
H 0.7634445119 4.8695696066 0.5137707365
H 4.5375205434 2.1888910816 0.2460815968
H 4.5029827329 0.9249826614 -1.0123347047
H 4.3395559685 0.4684792492 0.6810770638
H 2.5571250752 3.4071863894 0.3276675168
O 0.4061368969 -1.9790253112 -0.3620186334
C -0.4692827090 -2.8532169438 -0.0520732147
C 0.0758016436 -4.2360041396 0.2299960565
C -1.8522750517 -2.6260511874 0.0568482212
C -2.4803436892 -1.3869130522 -0.1444096303
O -1.8878995488 -0.2959046625 -0.4444612599
C -3.9804534140 -1.2799053054 0.0163037078
H 0.7587640235 -4.1855576694 1.0857044939
H 0.6640313395 -4.5752293805 -0.6294158727
H -0.7108976694 -4.9639838265 0.4419080498
H -4.4409290818 -2.2262808058 0.3096737841
H -4.4219878791 -0.9416952927 -0.9278989277
H -4.2092959209 -0.5163453554 0.7679384180
H -2.4781930678 -3.4674620619 0.3283380869
C -0.3173341268 0.2479610970 2.1087069114
O -0.9094938261 0.8449645726 2.8742949162
