31
11/26/2018 14:05, XYZ structure generated by mol3D Class, molSimplify
Cr 	0.000000	0.000000	0.000000
N 	0.000000	2.316777	0.000000
H 	-0.339453	1.346233	-0.042316
H 	-0.686806	3.084160	0.005289
C 	1.396591	2.616353	0.051157
H 	1.673102	3.665973	0.094249
C 	2.416254	1.712979	0.051157
H 	3.424875	2.114006	0.094250
N 	2.299895	0.279178	-0.000000
H 	1.364653	-0.163564	-0.042317
H 	3.131785	-0.298826	0.005293
N 	0.000000	-2.316777	0.000000
H 	-0.001871	-3.083900	-0.687114
H 	0.014972	-1.345463	-0.339550
C 	-0.018101	-2.617829	1.397074
H 	-0.033347	-3.668201	1.673654
C 	-0.018101	-1.714924	2.417092
H 	-0.033347	-2.116948	3.426123
N 	0.000000	-0.281160	2.299653
H 	0.014971	0.163337	1.364926
H 	-0.001871	0.297271	3.132701
N 	-2.316777	0.000000	0.000000
H 	-3.081976	0.003126	0.689251
H 	-1.344890	-0.025285	0.337178
C 	-2.621864	0.030610	-1.395630
H 	-3.672707	0.056359	-1.669602
C 	-1.720917	0.030611	-2.416575
H 	-2.123523	0.056360	-3.425157
N 	-0.288204	0.000000	-2.298781
H 	0.157354	-0.025289	-1.365136
H 	0.290503	0.003129	-3.132535
