31
# extracted from Terachem optimization
Cr -0.0615060097 1.6721873296 0.6906994119
N 7.2362809363 9.4372175408 -1.9381100197
H 7.0802369831 8.9520809802 -2.8118287995
H 6.7010002089 10.2845366843 -1.8132019310
C 7.7014222987 8.7745752697 -0.8431077624
H 7.5327480823 9.2512131738 0.1151794329
C 8.4027196491 7.5928967592 -0.8769388679
H 8.6655263886 7.1112875078 0.0572504384
N 8.7554080852 6.9286689161 -2.0171513896
H 8.8810787738 7.4431699646 -2.8803404120
H 9.3558527553 6.1202406758 -1.9298294038
N 1.6467769394 -9.3599180478 8.1368368801
H 1.7501585359 -9.9922403129 7.3547648021
H 2.3401306001 -8.6210410229 8.1690024917
C 0.3876133922 -9.1068673895 8.6065574856
H -0.4141551079 -9.7124760997 8.2005330849
C 0.1103429681 -8.1983708177 9.5968539026
H -0.9148382153 -7.9869945170 9.8772244066
N 1.0814461250 -7.4488902877 10.2185959883
H 1.9870391706 -7.8871938963 10.3639905683
H 0.7892915302 -6.9028787360 11.0206239143
N -10.0315676861 -1.5917978235 -7.0813892328
H -10.8432412236 -1.4016423415 -6.5078711077
H -9.9346630112 -2.5709432637 -7.3239017826
C -9.6339103720 -0.6262939773 -7.9629706188
H -10.0862874324 0.3498034689 -7.8357556143
C -8.6678607962 -0.7751382892 -8.9315944616
H -8.4621264671 0.0610923727 -9.5891575152
N -7.9238366353 -1.8875386443 -9.1523631863
H -7.9565719107 -2.6947270664 -8.5467456951
H -7.3159332356 -1.9524736188 -9.9553917815
