67
03/26/2019 17:38, XYZ structure generated by mol3D Class, molSimplify
Fe 	0.000000	0.000000	0.000000
N 	0.000000	2.038969	0.000000
C 	1.312705	2.380894	0.000970
C 	2.326820	1.361020	0.002205
N 	2.038969	0.000011	0.000000
C 	3.020430	-0.940075	0.001858
C 	4.360083	-0.556711	0.004425
C 	4.690862	0.797743	0.005492
C 	3.682501	1.770832	0.004442
C 	4.012429	3.136171	0.005507
C 	3.013262	4.113609	0.004271
C 	1.663324	3.744946	0.002055
C 	0.639721	4.707306	0.001011
C 	-0.702495	4.305800	-0.001199
C 	-1.013030	2.943657	-0.001881
H 	2.762413	-1.990085	0.000580
H 	5.139939	-1.307201	0.005400
H 	5.735731	1.084722	0.007264
H 	5.049764	3.449466	0.007223
H 	3.297267	5.159178	0.005140
H 	0.876451	5.764475	0.001750
H 	-1.493073	5.044863	-0.002234
H 	-2.044345	2.622457	-0.003366
N 	0.000000	-2.038969	0.000000
C 	0.001646	-2.345147	1.337099
C 	0.002719	-1.337026	2.345227
N 	0.000000	-0.000009	2.038969
C 	0.001732	0.963839	2.998808
C 	0.004735	0.612388	4.346390
C 	0.006416	-0.734158	4.702665
C 	0.005516	-1.722835	3.709721
C 	0.007329	-3.077509	4.062656
C 	0.006450	-4.062411	3.077834
C 	0.003763	-3.709609	1.723108
C 	0.003323	-4.702691	0.734608
C 	0.000952	-4.346606	-0.611949
C 	-0.000777	-2.999086	-0.963607
H 	-0.000075	2.007735	2.718040
H 	0.005584	1.379329	5.110067
H 	0.008578	-1.002577	5.752495
H 	0.009466	-3.376068	5.104401
H 	0.008024	-5.104128	3.376495
H 	0.004877	-5.752486	1.003173
H 	0.000643	-5.110395	-1.378780
H 	-0.002121	-2.718734	-2.007596
N 	-2.038969	0.000000	0.000000
C 	-2.344814	-0.037985	-1.336718
C 	-1.336704	-0.036060	-2.344880
N 	-0.000007	0.000000	-2.038969
C 	0.963809	0.002761	-2.998776
C 	0.612742	-0.034050	-4.345986
C 	-0.733380	-0.073285	-4.701847
C 	-1.722072	-0.074815	-3.708906
C 	-3.076319	-0.114474	-4.061334
C 	-4.061174	-0.116789	-3.076414
C 	-3.708766	-0.079082	-1.722100
C 	-4.701685	-0.081627	-0.733390
C 	-4.345916	-0.044218	0.612795
C 	-2.998851	-0.003627	0.963908
H 	2.007341	0.032817	-2.718188
H 	1.379651	-0.032466	-5.109693
H 	-1.001460	-0.102273	-5.751363
H 	-3.374570	-0.144163	-5.102745
H 	-5.102533	-0.148143	-3.374677
H 	-5.751130	-0.112761	-1.001506
H 	-5.109610	-0.046266	1.379713
H 	-2.718364	0.026503	2.007447
