58
03/26/2019 17:34, XYZ structure generated by mol3D Class, molSimplify
Fe 	0.000000	0.000000	0.000000
N 	2.008277	0.000005	0.000000
C 	2.377227	1.274423	-0.016419
N 	3.719366	1.388328	-0.017412
H 	4.289015	2.262258	-0.029306
N 	4.224729	0.160568	0.005858
C 	3.168638	-0.681998	0.019592
N 	3.291878	-2.087862	0.056259
C 	1.343127	2.348103	-0.029750
N 	0.000000	2.008277	0.000000
C 	-0.971361	2.962132	-0.013601
C 	-0.629024	4.313960	-0.054351
C 	0.716060	4.681141	-0.081662
C 	1.709192	3.700991	-0.069422
H 	2.466728	-2.696681	0.080911
H 	4.226553	-2.520138	0.069867
H 	-2.013403	2.676243	0.008857
H 	-1.401537	5.071889	-0.064161
H 	0.989723	5.727856	-0.112979
H 	2.747701	4.001947	-0.092014
N 	0.000000	-0.000003	2.008277
C 	-0.099274	-1.304677	2.323555
N 	-0.178320	-1.481652	3.657927
H 	-0.264320	-2.376863	4.186067
N 	-0.125000	-0.290982	4.227703
C 	-0.015764	0.593720	3.219914
N 	0.072274	1.988388	3.418750
C 	-0.122217	-2.364988	1.309899
N 	0.000000	-2.008277	0.000000
C 	-0.020359	-2.940940	-0.994904
C 	-0.164495	-4.294339	-0.689620
C 	-0.287848	-4.682895	0.642663
C 	-0.267196	-3.720117	1.651833
H 	0.160020	2.629666	2.619987
H 	0.053610	2.376190	4.372692
H 	0.080069	-2.639582	-2.027188
H 	-0.179011	-5.034620	-1.478981
H 	-0.400140	-5.729770	0.893562
H 	-0.366518	-4.039818	2.679271
N 	-0.000002	0.000000	-2.008277
C 	-1.306646	-0.079180	-2.323520
N 	-1.486420	-0.144784	-3.658162
H 	-2.383202	-0.213407	-4.186120
N 	-0.296157	-0.105061	-4.229004
C 	0.591444	-0.016370	-3.221971
N 	1.986507	0.050659	-3.425231
C 	-2.367561	-0.091885	-1.311041
N 	-2.008277	0.000000	0.000000
C 	-2.942451	0.000054	0.993291
C 	-4.299346	-0.098647	0.685757
C 	-4.690225	-0.195877	-0.647823
C 	-3.726186	-0.192091	-1.655792
H 	2.632709	0.120474	-2.629529
H 	2.370171	0.032542	-4.380865
H 	-2.639592	0.078168	2.027026
H 	-5.040448	-0.099082	1.474509
H 	-5.739809	-0.272995	-0.900733
H 	-4.048131	-0.267079	-2.684549
