67
03/26/2019 17:35, XYZ structure generated by mol3D Class, molSimplify
Fe 	0.000000	0.000000	0.000000
N 	4.673721	-2.489540	0.006409
H 	4.884085	-3.512467	0.006885
C 	5.711456	-1.589148	0.007786
N 	5.466573	-0.243452	0.007695
C 	4.177259	0.168104	0.005520
C 	3.136805	-0.708835	0.003320
C 	3.371050	-2.074833	0.004360
N 	2.001585	0.000002	0.000000
C 	2.382806	1.281582	0.003318
N 	3.731600	1.441102	0.005954
C 	1.342964	2.345338	0.004364
N 	0.000000	2.001585	0.000000
C 	-0.970265	2.957265	0.000058
C 	-0.626896	4.309932	0.007592
C 	0.718507	4.677714	0.013868
C 	1.710682	3.696954	0.011850
H 	6.733485	-1.944546	0.009330
H 	2.567416	-2.793797	0.003583
H 	-2.012907	2.673224	-0.003641
H 	-1.399208	5.068112	0.009035
H 	0.992796	5.724677	0.020149
H 	2.752915	3.990558	0.016596
N 	0.039897	2.310155	4.826151
H 	0.028196	3.320604	5.089658
C 	0.086597	1.356337	5.813282
N 	0.102749	0.026544	5.494549
C 	0.071246	-0.312265	4.184333
C 	0.024882	0.610339	3.196319
C 	0.008168	1.961966	3.504632
N 	0.000000	-0.000002	2.001585
C 	0.037239	-1.316317	2.329491
N 	0.079512	-1.547679	3.668482
C 	0.025397	-2.365868	1.312811
N 	0.000000	-2.001585	0.000000
C 	-0.020724	-2.936583	-0.992486
C 	-0.009103	-4.297032	-0.679941
C 	0.022474	-4.690018	0.657409
C 	0.039489	-3.724220	1.663829
H 	0.110855	1.656052	6.852728
H 	-0.028625	2.718388	2.733227
H 	-0.042552	-2.631643	-2.028551
H 	-0.023215	-5.039031	-1.467662
H 	0.032567	-5.741459	0.913785
H 	0.061723	-4.034362	2.700959
N 	2.307223	0.015201	-4.829764
H 	3.317393	0.002520	-5.094309
C 	1.352280	0.050217	-5.816149
N 	0.022936	0.067100	-5.495974
C 	-0.314310	0.048287	-4.185118
C 	0.609315	0.013891	-3.197425
C 	1.960619	-0.003688	-3.507616
N 	-0.000002	0.000000	-2.001585
C 	-1.316797	0.029266	-2.329325
N 	-1.549162	0.058783	-3.668414
C 	-2.366218	0.025082	-1.312581
N 	-2.001585	0.000000	0.000000
C 	-2.936391	-0.004178	0.992540
C 	-4.296707	0.019204	0.680498
C 	-4.690012	0.046281	-0.656759
C 	-3.724453	0.049396	-1.663406
H 	1.650731	0.064413	-6.856143
H 	2.718265	-0.031655	-2.737726
H 	-2.631165	-0.024284	2.028633
H 	-5.038477	0.016624	1.468600
H 	-5.741435	0.064873	-0.912839
H 	-4.034696	0.070645	-2.700552
