10
07/15/2022 21:15, XYZ structure generated by mol3D Class, molSimplify
Fe 	0.000020	0.000000	0.000000
O 	2.120020	0.000000	0.000000
H 	2.729182	0.026653	-0.781298
H 	2.728248	-0.028179	0.781932
O 	-0.706681	-1.362070	-1.462785
H 	-1.430849	-1.222150	-2.124712
H 	-0.387744	-2.283123	-1.642077
O 	-0.706687	1.947841	-0.448198
H 	-0.695419	2.749167	0.134868
H 	-1.125404	2.264400	-1.288837
