10
07/15/2022 21:12, XYZ structure generated by mol3D Class, molSimplify
Fe 	0.000000	0.000000	0.000000
O 	-1.957585	0.492141	0.648119
H 	-2.404883	0.225459	1.491371
H 	-2.634735	1.041484	0.176951
O 	0.951527	-1.746264	0.734547
H 	1.923472	-1.917547	0.825504
H 	0.526130	-2.578001	1.065509
O 	0.965381	1.223677	-1.437030
H 	0.569473	1.950860	-1.981760
H 	1.915622	1.199311	-1.717647
