36

Fe	-1.3698173415	0.0786518025	0.0366232225
Fe	1.3702558646	-0.0862633329	0.008196891
O	-0.0146364667	-0.117279243	-1.2592965982
O	0.0160871104	0.1165592075	1.302711387
N	-1.7157013114	2.3137652308	-0.0215231433
N	1.8979349267	2.0967892591	-0.2629335765
N	1.7197206426	-2.3006677976	0.29527484
N	2.8976353259	-0.3393143527	-1.7527673662
N	2.9429047217	0.0589368203	1.747907774
N	-1.8897749654	-2.1197863459	0.1004187542
N	-2.9335503125	0.0840754847	-1.7144191569
N	-2.9142536508	0.1947336587	1.7989625944
H	3.6774718388	0.3125079756	-1.851617795
H	2.2705116085	-0.1726390249	-2.542715673
H	3.2979671913	-1.2655199121	-1.9089532465
H	3.5555905239	0.8745497373	1.7892782369
H	2.2978988436	0.1459759098	2.5364534554
H	3.5450765606	-0.7396981543	1.9532975424
H	2.8893923038	2.3368007392	-0.3026705364
H	1.4971386579	2.6491865017	0.4955860163
H	1.4841600775	2.4290577168	-1.1344926192
H	2.6983495983	-2.5898829964	0.2638108518
H	1.3609982425	-2.5940693519	1.2049046632
H	1.2354528083	-2.8524179113	-0.4136361569
H	-1.4827199904	-2.5662098894	0.9227383919
H	-2.8807529685	-2.3645228435	0.0998986609
H	-1.4796767998	-2.5620660649	-0.7226299061
H	-3.6617707757	-0.630872672	-1.7450509209
H	-2.3023432186	-0.1076715657	-2.4956267776
H	-3.4063978051	0.9598712594	-1.9417421099
H	-2.2694961894	0.3367412566	2.5796158865
H	-3.5932107842	0.9562427191	1.8383593601
H	-3.4435331818	-0.6495710506	2.0207791063
H	-1.2873122055	2.7451564433	-0.8413603563
H	-2.6937286027	2.6063324503	-0.0235313004
H	-1.2888854334	2.738658084	0.802473496
