133

Zr	12.9622	14.9321	19.5398
S	15.5863	13.8808	20.0535
S	14.8895	16.5832	18.2352
C	16.7521	15.2392	19.6455
H	16.5227	16.0258	20.2175
C	16.4363	15.6012	18.1849
H	16.2274	14.7473	17.7079
C	17.5362	16.319	17.3734
H	18.372	15.7967	17.4684
H	17.2785	16.2902	16.4194
C	17.8425	17.7641	17.7336
H	17.0302	18.304	17.5614
H	18.5496	18.0909	17.1221
C	18.2951	18.0236	19.1745
H	17.5252	17.8794	19.7801
H	18.5669	18.9721	19.2556
C	19.4609	17.1329	19.6337
H	19.9181	16.7772	18.8301
H	20.1114	17.6984	20.1205
C	19.0838	15.9633	20.5263
H	18.6124	16.3286	21.316
H	19.9244	15.5548	20.8548
C	18.2149	14.8354	19.9503
H	18.2086	14.0825	20.5936
H	18.6329	14.5102	19.1151
C	15.459	13.9911	21.8959
H	14.6122	13.565	22.1849
H	16.2054	13.4801	22.2996
C	15.4967	15.3914	22.4125
C	16.5322	15.7695	23.2675
H	17.1701	15.1206	23.5386
C	16.65	17.0656	23.7306
C	15.6633	17.9724	23.3546
H	15.7309	18.8615	23.6811
C	14.5839	17.6632	22.5352
C	14.5242	16.3494	22.0305
C	17.8394	17.5382	24.5718
C	18.7963	16.4055	24.8964
H	19.0398	15.9361	24.071
H	18.3642	15.7791	25.5119
H	19.6054	16.7708	25.314
C	18.658	18.5796	23.7801
H	18.9754	18.179	22.9449
H	19.4279	18.8663	24.3165
H	18.0939	19.355	23.5782
C	17.3476	18.179	25.8761
H	18.1175	18.4722	26.4065
H	16.8291	17.5238	26.3867
H	16.782	18.9528	25.6663
C	13.5217	18.7269	22.2007
C	13.5532	19.041	20.6787
H	14.4503	19.347	20.4273
H	12.8996	19.7443	20.4788
H	13.3301	18.2319	20.174
C	12.1234	18.2303	22.6005
H	11.4588	18.9176	22.3808
H	12.103	18.0509	23.5624
H	11.916	17.4084	22.1096
C	13.7763	20.0359	22.9409
H	13.0472	20.6639	22.7568
H	14.6247	20.4236	22.6381
H	13.8234	19.8628	23.9048
O	13.5555	15.934	21.1662
C	14.2366	16.3831	16.5422
H	13.2735	16.609	16.5501
H	14.6907	17.0367	15.9524
C	14.3953	15.0197	15.9444
C	15.1369	14.8819	14.7668
H	15.5313	15.6509	14.3749
C	15.3082	13.6499	14.1533
C	14.7049	12.5476	14.7846
H	14.7913	11.6969	14.369
C	13.9915	12.6149	15.9702
C	13.8517	13.8854	16.5639
C	16.0797	13.4721	12.8312
C	16.9438	14.7105	12.5422
H	16.364	15.4891	12.4076
H	17.4765	14.5567	11.7347
H	17.5424	14.8755	13.3002
C	16.9957	12.2593	12.8806
H	17.5896	12.2657	12.1028
H	16.4536	11.4422	12.8707
H	17.5299	12.2865	13.702
C	15.0851	13.3295	11.6852
H	14.5006	12.5621	11.8534
H	15.5706	13.1917	10.844
H	14.543	14.1433	11.6179
C	13.4008	11.3461	16.6193
C	14.0214	11.1058	17.9929
H	13.7936	11.8507	18.5886
H	14.9955	11.0449	17.9038
H	13.6742	10.2695	18.367
C	13.6663	10.1076	15.7742
H	14.6326	9.9939	15.6555
H	13.2405	10.2134	14.8974
H	13.2971	9.3194	16.2235
C	11.8704	11.4983	16.746
H	11.487	11.6921	15.8653
H	11.6646	12.2336	17.3615
H	11.4855	10.6652	17.0924
O	13.1949	14.06	17.7493
C	11.2404	16.2709	18.9964
H	10.8476	16.5946	19.8454
H	11.6237	17.0624	18.5411
Si	9.7917	15.6525	17.9118
C	8.4311	16.9406	17.9058
H	8.0964	17.0688	18.8163
H	7.6989	16.6394	17.3279
H	8.7862	17.7881	17.5654
C	9.0737	14.028	18.458
H	8.7453	14.1081	19.3783
H	9.765	13.3343	18.4165
H	8.3305	13.7845	17.8682
C	10.3605	15.4458	16.1839
H	10.7502	16.2869	15.8672
H	9.6	15.2023	15.6179
H	11.0377	14.7377	16.1463
C	12.0558	13.1629	20.6193
H	11.4588	12.7111	19.9721
H	12.799	12.5348	20.8054
Si	11.0889	13.3295	22.209
C	12.2224	13.6964	23.6514
H	11.7007	13.7156	24.4807
H	12.6529	14.5663	23.5149
H	12.909	12.9994	23.7128
C	9.8357	14.7201	22.173
H	9.2371	14.5999	21.405
H	10.3024	15.5788	22.0918
H	9.3109	14.7089	23.0003
C	10.1342	11.7434	22.551
H	9.4853	11.5912	21.8326
H	9.6597	11.8251	23.406
H	10.758	10.9888	22.5945
