19
# extracted from Terachem optimization
Fe 0.0627021216 -0.0868176991 0.0195589919
O 0.2212757620 2.1131801720 -0.4034587514
H 0.3914980941 2.5056415877 -1.2899422259
O 1.4202032342 2.3790586306 0.3016876348
O 2.1135048286 1.0209261283 0.2871216909
O 2.4842977993 0.7562884493 1.6004654275
H 3.4048469276 1.1066001203 1.6459718522
O -0.4551452620 -2.5594720283 1.5469003248
H -0.5475614964 -3.5472688220 1.4764768278
O -0.1711878342 -2.1531194830 0.3251604496
O -0.2874630078 0.2470797970 1.9885916780
O -1.0931527998 1.2740009358 2.2374950571
H -1.1035162628 1.3543000219 3.2260714328
O -2.8164072138 -0.0862444200 -0.1536995350
H -3.6359162463 0.0432325879 -0.7009309591
O -1.8104118331 0.2148103603 -0.9580858341
O 0.9143904650 -0.9855909901 -1.7533606329
O 1.7609582838 -0.2430920492 -2.4437054329
H 2.0582090324 -0.8186380830 -3.1976247032
