22
05/02/2020 00:38, XYZ structure generated by mol3D Class, molSimplify
Mn 	0.000000	0.000000	0.000000
F 	0.000000	2.100000	0.000000
F 	2.100000	0.000000	0.000000
F 	0.000000	-2.100000	0.000000
F 	-2.100000	0.000000	0.000000
N 	0.000000	0.000000	2.190000
C 	0.000000	0.000000	3.450966
C 	0.000000	0.000000	4.970966
H 	-1.002221	-0.228631	5.343763
H 	0.699111	-0.753633	5.343762
H 	0.303111	0.982264	5.343762
C 	0.000000	-0.000000	-4.987180
C 	-0.024777	1.200185	-4.284527
C 	-0.023724	1.149236	-2.899657
N 	0.000000	0.000000	-2.190000
C 	0.023724	-1.149236	-2.899657
C 	0.024777	-1.200185	-4.284527
H 	-0.000000	-0.000000	-6.073307
H 	-0.044432	2.152231	-4.802468
H 	-0.042497	2.058757	-2.306250
H 	0.042497	-2.058757	-2.306250
H 	0.044432	-2.152231	-4.802468
