
 OpenBabel10042311193D

 25 25  0  0  1  0  0  0  0  0999 V2000
    8.2852    1.8597   -0.4225 N   0  0  0  0  0  0  0  0  0  0  0  0
    6.4573    1.0128    1.7795 N   0  0  0  0  0  0  0  0  0  0  0  0
    5.5044    0.7895   -1.0541 N   0  0  0  0  0  0  0  0  0  0  0  0
    3.7706    1.5139    0.9470 O   0  0  0  0  0  0  0  0  0  0  0  0
    7.5197    3.1213   -0.2890 C   0  0  2  0  0  0  0  0  0  0  0  0
    8.1252    3.8762   -0.5384 H   0  0  0  0  0  0  0  0  0  0  0  0
    7.0649    3.3380    1.1546 C   0  0  0  0  0  0  0  0  0  0  0  0
    7.8444    3.2221    1.7539 H   0  0  0  0  0  0  0  0  0  0  0  0
    6.7490    4.2718    1.2514 H   0  0  0  0  0  0  0  0  0  0  0  0
    5.9539    2.3964    1.6094 C   0  0  1  0  0  0  0  0  0  0  0  0
    5.6211    2.7154    2.4962 H   0  0  0  0  0  0  0  0  0  0  0  0
    4.7926    2.4564    0.6206 C   0  0  1  0  0  0  0  0  0  0  0  0
    4.3907    3.3696    0.6829 H   0  0  0  0  0  0  0  0  0  0  0  0
    5.1707    2.2194   -0.8370 C   0  0  1  0  0  0  0  0  0  0  0  0
    4.3792    2.4448   -1.4054 H   0  0  0  0  0  0  0  0  0  0  0  0
    6.3299    3.1341   -1.2477 C   0  0  0  0  0  0  0  0  0  0  0  0
    6.6446    2.8612   -2.1463 H   0  0  0  0  0  0  0  0  0  0  0  0
    5.9909    4.0619   -1.3189 H   0  0  0  0  0  0  0  0  0  0  0  0
    3.5113    1.6466    1.6578 H   0  0  0  0  0  0  0  0  0  0  0  0
    9.0126    1.8826    0.0880 H   0  0  0  0  0  0  0  0  0  0  0  0
    8.5893    1.7976   -1.1956 H   0  0  0  0  0  0  0  0  0  0  0  0
    5.8000    0.4910    2.1492 H   0  0  0  0  0  0  0  0  0  0  0  0
    7.0611    1.0706    2.3179 H   0  0  0  0  0  0  0  0  0  0  0  0
    5.5481    0.6264   -1.9145 H   0  0  0  0  0  0  0  0  0  0  0  0
    4.8191    0.3522   -0.8069 H   0  0  0  0  0  0  0  0  0  0  0  0
  1  5  1  0  0  0  0
  1 20  1  0  0  0  0
  2 22  1  0  0  0  0
  2 23  1  0  0  0  0
  3 14  1  0  0  0  0
  3 25  1  0  0  0  0
  4 19  1  0  0  0  0
  5  6  1  6  0  0  0
  5  7  1  0  0  0  0
  7  9  1  0  0  0  0
  7 10  1  0  0  0  0
  7  8  1  0  0  0  0
 10 12  1  6  0  0  0
 10  2  1  0  0  0  0
 10 11  1  0  0  0  0
 12 13  1  1  0  0  0
 12  4  1  0  0  0  0
 14 12  1  1  0  0  0
 15 14  1  0  0  0  0
 16 14  1  0  0  0  0
 16  5  1  0  0  0  0
 17 16  1  0  0  0  0
 18 16  1  0  0  0  0
 21  1  1  0  0  0  0
 24  3  1  0  0  0  0
M  END
