
 OpenBabel10032316043D

 13 12  0  0  0  0  0  0  0  0999 V2000
   -1.1771    0.1409    0.0018 O   0  0  0  0  0  0  0  0  0  0  0  0
   -2.3525   -0.6412    0.0133 C   0  0  0  0  0  0  0  0  0  0  0  0
   -0.0457   -0.7036   -0.0051 C   0  0  0  0  0  0  0  0  0  0  0  0
   -3.2633   -0.2464   -1.1198 C   0  0  0  0  0  0  0  0  0  0  0  0
   -2.9146   -0.4851    0.9621 H   0  0  0  0  0  0  0  0  0  0  0  0
   -2.1056   -1.7192   -0.1189 H   0  0  0  0  0  0  0  0  0  0  0  0
    0.7509   -0.5129   -1.2692 C   0  0  0  0  0  0  0  0  0  0  0  0
   -0.0778   -1.4042    0.8602 H   0  0  0  0  0  0  0  0  0  0  0  0
    0.8912   -0.1016    0.0173 H   0  0  0  0  0  0  0  0  0  0  0  0
   -4.4404   -0.0288   -0.8821 O   0  0  0  0  0  0  0  0  0  0  0  0
    1.9556   -0.7069   -1.2426 O   0  0  0  0  0  0  0  0  0  0  0  0
   -2.8203   -0.1256   -2.3918 O   0  5  0  0  0  0  0  0  0  0  0  0
    0.1758   -0.1335   -2.4330 O   0  5  0  0  0  0  0  0  0  0  0  0
  1  2  1  0  0  0  0
  1  3  1  0  0  0  0
  2  4  1  0  0  0  0
  2  5  1  0  0  0  0
  2  6  1  0  0  0  0
  3  7  1  0  0  0  0
  3  8  1  0  0  0  0
  3  9  1  0  0  0  0
  4 10  2  0  0  0  0
  4 12  1  0  0  0  0
  7 11  2  0  0  0  0
  7 13  1  0  0  0  0
M  CHG  2  12  -1  13  -1
M  END
