15
05/02/2020 17:30, XYZ structure generated by mol3D Class, molSimplify
Fe 	0.000000	0.000000	0.000000
S 	0.000000	2.270000	0.000000
H 	0.260896	2.353219	-1.289042
H 	1.227075	2.346507	0.465996
S 	2.270000	0.000000	0.000000
H 	1.534855	-0.531521	-0.993412
H 	1.516633	-0.620341	0.927708
S 	0.000000	-2.270000	0.000000
H 	-0.057708	-3.262240	-0.892460
H 	-0.999538	-2.760632	0.749173
S 	-2.270000	0.000000	0.000000
H 	-3.074865	-0.725474	-0.789924
H 	-3.250101	0.319712	0.858039
I 	0.000000	0.000000	2.580000
I 	0.000000	0.000000	-2.580000
