46
10/20/2023 15:14, XYZ structure generated by mol3D Class, molSimplify
Cd 	0.000000	0.000000	0.000000
N 	0.888670	2.286908	-0.138875
N 	2.230000	0.000000	0.000000
N 	0.484831	-2.286908	0.138875
C 	0.192636	3.414133	-0.317593
H 	-0.752725	3.360358	-0.403191
C 	0.802654	4.665916	-0.383757
H 	0.284511	5.450119	-0.520162
C 	2.166556	4.741024	-0.247557
H 	2.605183	5.582459	-0.281752
C 	2.898657	3.575431	-0.060630
H 	3.842805	3.610941	0.043360
C 	2.229354	2.356145	-0.026818
C 	2.951585	1.045787	0.110406
C 	4.426953	1.006931	0.344951
H 	4.869917	0.592937	-0.425158
H 	4.616117	0.484101	1.151796
H 	4.762429	1.920049	0.462305
C 	2.800816	-1.334075	0.123597
H 	2.957797	-1.546246	1.077217
H 	3.668621	-1.376528	-0.352368
C 	1.827332	-2.338075	-0.479399
H 	1.741020	-2.160171	-1.449782
H 	2.197426	-3.249828	-0.370701
C 	0.537108	-2.907815	1.488353
H 	1.098124	-2.351601	2.085927
H 	0.952276	-3.804078	1.423974
C 	-0.846068	-3.036455	2.073049
H 	-0.788061	-3.449226	2.970619
H 	-1.246810	-2.136184	2.175041
C 	-1.795587	-3.213975	-0.057003
H 	-2.204986	-2.319274	0.044378
H 	-2.388871	-3.759034	-0.633724
C 	-0.442024	-3.078132	-0.711401
H 	-0.059608	-3.978826	-0.866786
H 	-0.544417	-2.634273	-1.590049
O 	-1.680576	-3.836014	1.233903
N 	-2.230000	0.000000	-0.000000
N 	-3.432143	0.000000	-0.000000
N 	-4.591823	0.008920	-0.027340
N 	-0.000000	0.000000	2.230000
N 	-0.000000	0.000000	3.432143
N 	-0.028592	0.003093	4.591823
O 	0.000000	0.000000	-2.210000
H 	0.455175	0.506496	-2.692472
H 	-0.455175	-0.506496	-2.678863
