31
08/06/2018 10:58, XYZ structure generated by mol3D Class, molSimplify
Co 	0.000000	0.000000	0.000000
N 	0.000000	1.926864	0.000000
H 	-0.046361	2.228971	0.980088
S 	0.046361	3.288038	-0.980088
H 	-0.586316	2.827694	-2.037903
H 	-0.878665	4.023798	-0.402010
N 	1.926864	0.000000	0.000000
H 	2.228975	0.944597	-0.265435
S 	3.288039	-0.944597	0.265435
H 	2.827702	-2.117534	-0.113352
H 	4.023811	-0.589165	-0.765826
N 	0.000000	-1.926864	0.000000
H 	0.908708	-2.228975	-0.370092
S 	-0.908708	-3.288039	0.370092
H 	-2.116828	-2.827707	0.125741
H 	-0.671619	-4.023823	-0.694614
N 	-1.926864	0.000000	0.000000
H 	-2.228974	-0.866215	-0.460855
S 	-3.288040	0.866215	0.460855
H 	-2.827721	2.092961	0.340980
H 	-4.023836	0.738940	-0.622472
N 	-0.000000	-0.000000	1.926864
H 	-0.980529	-0.035778	2.228972
S 	0.980529	0.035778	3.288041
H 	1.981692	0.754761	2.827711
H 	0.327070	0.909162	4.023826
N 	0.000000	0.000000	-1.926864
H 	0.927531	0.320003	-2.228974
S 	-0.927531	-0.320003	-3.288041
H 	-2.120532	-0.010133	-2.827716
H 	-0.632737	0.730187	-4.023832
