57
07/14/2022 09:38, XYZ structure generated by mol3D Class, molSimplify
Fe 	0.000000	0.000000	0.000000
N 	0.000000	2.230000	0.000000
N 	2.217804	0.232906	0.000000
C 	-1.043436	3.100344	-0.007981
H 	-2.058125	2.727233	0.009297
C 	-0.806509	4.467963	-0.039011
H 	-1.634582	5.165462	-0.046338
C 	0.507089	4.925913	-0.060860
H 	0.701066	5.990551	-0.085589
C 	1.572180	4.019432	-0.051592
H 	2.563696	4.436726	-0.070612
C 	3.819845	2.002785	-0.011605
H 	4.119387	3.036534	-0.018488
C 	4.840691	1.049576	-0.000901
H 	5.875253	1.367641	-0.000754
C 	4.535022	-0.308177	0.010113
H 	5.324720	-1.047992	0.018831
C 	3.202126	-0.702887	0.010228
H 	2.945106	-1.753647	0.018838
C 	1.322505	2.626275	-0.020590
C 	2.465971	1.595998	-0.010757
N 	0.000000	-2.230000	0.000000
N 	0.000000	-0.175886	2.223053
C 	-0.006661	-3.127570	-1.019910
H 	0.025032	-2.781440	-2.043930
C 	-0.054494	-4.488194	-0.747159
H 	-0.060748	-5.208179	-1.555348
C 	-0.094501	-4.911713	0.576772
H 	-0.132343	-5.970376	0.799469
C 	-0.086112	-3.979326	1.617813
H 	-0.119906	-4.376528	2.616730
C 	-0.049577	-1.937489	3.832710
H 	-0.071497	-2.966877	4.143834
C 	-0.040572	-0.979130	4.848736
H 	-0.055447	-1.292993	5.885247
C 	-0.010858	0.376219	4.537705
H 	-0.003401	1.118553	5.325019
C 	0.009032	0.764156	3.203639
H 	0.032139	1.813696	2.943040
C 	-0.037675	-2.591937	1.337193
C 	-0.028636	-1.541024	2.474558
O 	-2.115839	0.000000	0.000000
C 	-2.371377	-0.031157	-1.311256
C 	-3.733964	-0.063598	-1.518891
C 	-4.304797	-0.050701	-0.265490
C 	-3.263344	-0.011641	0.641432
H 	-4.253364	-0.093176	-2.467387
H 	-3.360080	0.007785	1.718478
H 	-5.362021	-0.067890	-0.037789
C 	-1.312353	-0.030619	-2.370060
O 	-0.000002	0.000000	-2.115839
C 	0.638971	-0.010685	-3.264820
C 	-0.270069	-0.051471	-4.304631
C 	-1.522214	-0.064547	-3.731760
H 	-2.471886	-0.095442	-4.249016
H 	1.715741	0.008956	-3.364025
H 	-0.045031	-0.069770	-5.362301
