67
07/14/2022 09:28, XYZ structure generated by mol3D Class, molSimplify
Fe 	0.000000	0.000000	0.000000
C 	-0.058322	5.197326	-0.003996
C 	1.137856	4.600595	-0.055497
C 	1.248307	3.100765	-0.073944
N 	0.000000	2.358968	0.000000
C 	-1.246635	3.056979	0.031999
C 	-1.295848	4.395770	0.031482
H 	-0.124429	6.279634	0.006116
H 	2.039710	5.202580	-0.087625
H 	2.212225	2.568362	-0.146385
H 	-2.176329	2.514597	0.046247
H 	-2.257046	4.899701	0.053972
C 	5.200170	-0.036967	-0.066836
C 	4.611734	0.427733	1.039630
C 	3.113598	0.442236	1.163296
N 	2.358968	0.000000	0.000000
C 	3.052756	-0.494269	-1.147880
C 	4.390863	-0.527571	-1.196241
H 	6.283321	-0.048359	-0.140977
H 	5.218301	0.798402	1.859375
H 	2.600004	0.910249	2.016003
H 	2.507049	-0.860787	-1.997398
H 	4.889331	-0.913327	-2.080563
C 	-0.059044	-5.194617	-0.009600
C 	1.135681	-4.600671	0.090658
C 	1.244665	-3.102071	0.117291
N 	0.000000	-2.358968	0.000000
C 	-1.244344	-3.054830	-0.085642
C 	-1.293538	-4.393272	-0.093312
H 	-0.123901	-6.278291	-0.025583
H 	2.035933	-5.204183	0.156509
H 	2.202752	-2.570092	0.244813
H 	-2.172516	-2.509811	-0.136656
H 	-2.253353	-4.897470	-0.154678
C 	-5.185751	0.012914	0.045454
C 	-4.585928	-0.335597	-1.100611
C 	-3.087031	-0.325593	-1.214213
N 	-2.358968	0.000000	0.000000
C 	-3.052176	0.374346	1.190078
C 	-4.391085	0.395272	1.229233
H 	-6.269320	0.008378	0.109300
H 	-5.183504	-0.626636	-1.958471
H 	-2.537151	-0.700129	-2.099446
H 	-2.494693	0.659547	2.073100
H 	-4.900051	0.689488	2.141563
C 	-0.012952	0.037398	5.109137
C 	-0.294021	-1.122921	4.503119
C 	-0.307182	-1.219991	3.001338
N 	0.000000	0.000000	2.271519
C 	0.269725	1.212308	2.979792
C 	0.275982	1.248867	4.318516
H 	-0.003985	0.092713	6.192147
H 	-0.510408	-2.004707	5.095123
H 	-0.562895	-2.146283	2.457706
H 	0.490810	2.120734	2.438921
H 	0.496500	2.180197	4.831446
C 	-0.007929	-0.048873	-5.129714
C 	-0.256544	1.120778	-4.528288
C 	-0.275443	1.224042	-3.028136
N 	0.000000	0.000000	-2.293913
C 	0.233609	-1.223424	-2.996190
C 	0.243346	-1.265582	-4.334583
H 	0.005667	-0.108166	-6.213099
H 	-0.447371	2.005666	-5.126297
H 	-0.495393	2.161743	-2.487828
H 	0.427998	-2.135334	-2.450839
H 	0.439686	-2.204221	-4.843332
