63
07/14/2022 09:40, XYZ structure generated by mol3D Class, molSimplify
Fe 	0.000000	0.000000	0.000000
C 	-0.085010	5.108616	-0.007032
C 	1.109022	4.524297	0.128485
C 	1.235095	3.026486	0.131087
N 	0.000000	2.265596	0.000000
C 	-1.242077	2.956323	-0.161681
C 	-1.303944	4.294774	-0.161416
H 	-0.162314	6.190834	-0.007941
H 	1.999419	5.134408	0.239161
H 	2.198663	2.515678	0.296958
H 	-2.160721	2.411833	-0.291727
H 	-2.262749	4.790113	-0.280101
C 	5.096287	-0.008427	-0.001842
C 	4.478038	0.476316	-1.087220
C 	2.976546	0.474058	-1.178261
N 	2.265596	0.000000	0.000000
C 	2.986412	-0.539663	1.111794
C 	4.321063	-0.550778	1.130456
H 	6.180550	-0.007489	0.048795
H 	5.062371	0.872633	-1.910476
H 	2.408119	0.930215	-2.011104
H 	2.445035	-0.954757	1.953249
H 	4.844630	-0.963447	1.988305
C 	-0.068697	-5.109275	0.001594
C 	1.119040	-4.517602	-0.158027
C 	1.234616	-3.018632	-0.171883
N 	0.000000	-2.265596	0.000000
C 	-1.237806	-2.965431	0.161270
C 	-1.291247	-4.303830	0.163656
H 	-0.138612	-6.192543	0.008345
H 	2.010904	-5.122466	-0.283466
H 	2.183674	-2.503104	-0.394818
H 	-2.161257	-2.426341	0.289474
H 	-2.246591	-4.804777	0.286821
O 	-2.265596	0.000000	0.000000
C 	-3.079891	0.373169	0.969366
C 	-4.388026	0.243331	0.562474
C 	-4.338749	-0.230941	-0.724863
C 	-3.001177	-0.359643	-1.034326
H 	-2.764855	0.739955	1.934729
H 	-5.273136	0.471749	1.141442
H 	-2.604101	-0.712530	-1.975369
H 	-5.181318	-0.452947	-1.365690
C 	-0.035064	-0.034473	5.065256
C 	0.824417	0.797388	4.466078
C 	0.863172	0.910157	2.967346
N 	0.000000	0.000000	2.230710
C 	-0.904867	-0.855593	2.929967
C 	-0.946402	-0.877910	4.268628
H 	-0.060628	-0.098718	6.148435
H 	1.498756	1.401163	5.064378
H 	1.613867	1.514889	2.425167
H 	-1.581884	-1.491523	2.378909
H 	-1.650175	-1.530806	4.775529
O 	0.000000	0.000000	-2.478450
C 	0.313370	-1.021281	-3.244382
C 	0.200571	-0.658114	-4.568442
C 	-0.204265	0.656368	-4.568606
C 	-0.315647	1.020759	-3.244604
H 	0.613490	-1.993332	-2.877105
H 	0.391803	-1.280188	-5.432336
H 	-0.614604	1.992832	-2.877861
H 	-0.396280	1.278106	-5.432700
