87
04/04/2018 14:06, XYZ structure generated by mol3D Class, molSimplify
Co 	0.000000	0.000000	0.000000
N 	0.000000	1.883201	0.000000
N 	1.883201	0.000017	0.000000
C 	-1.052616	2.743660	-0.010329
H 	-1.874885	2.763357	-0.697005
C 	-0.774229	4.119931	0.054463
H 	-1.577111	4.837067	-0.084233
C 	0.528104	4.597312	0.072230
C 	1.574259	3.692628	0.013282
H 	2.581871	4.076949	-0.006646
C 	3.697651	1.558539	-0.115104
H 	4.087290	2.564328	-0.135803
C 	4.597175	0.503124	-0.166811
C 	4.117646	-0.799247	-0.094917
H 	4.830914	-1.601871	0.058895
C 	2.742331	-1.056841	0.015928
H 	2.750729	-1.815527	0.789525
C 	1.286443	2.318662	-0.030889
C 	2.322866	1.282795	-0.018512
S 	6.363369	0.829194	-0.118326
S 	0.854975	6.361691	-0.031659
O 	1.612419	6.920190	1.180937
O 	1.654597	6.970743	-1.427270
H 	2.612802	6.760438	-1.291949
O 	-0.446619	7.175565	0.033203
O 	6.881191	1.580196	-1.352717
O 	7.177176	-0.471103	-0.203452
O 	7.016276	1.642285	1.250509
H 	6.813382	2.601464	1.107801
N 	0.000000	-1.883201	0.000000
N 	-1.883201	-0.000017	0.000000
C 	1.052531	-2.743735	-0.011127
H 	1.814851	-2.752649	-0.779883
C 	0.784567	-4.119427	0.078971
H 	1.585569	-4.835573	-0.068019
C 	-0.521219	-4.595895	0.109658
C 	-1.570907	-3.692298	0.043144
H 	-2.579127	-4.076279	0.033749
C 	-3.698840	-1.557667	-0.101313
H 	-4.088814	-2.563404	-0.115934
C 	-4.598532	-0.501351	-0.153393
C 	-4.117801	0.802129	-0.091102
H 	-4.829471	1.605272	0.066051
C 	-2.742190	1.057072	0.015405
H 	-2.743253	1.793538	0.816020
C 	-1.286626	-2.318720	-0.025191
C 	-2.323000	-1.282855	-0.012633
S 	-6.365043	-0.827542	-0.092761
S 	-0.852943	-6.360056	0.020538
O 	-1.600477	-6.913637	1.241873
O 	-1.663027	-6.975539	-1.366895
H 	-2.619962	-6.760857	-1.228858
O 	0.449020	-7.173718	0.077233
O 	-6.890460	-1.582992	-1.321280
O 	-7.179793	0.472553	-0.175489
O 	-7.008880	-1.635683	1.283302
H 	-6.812849	-2.595766	1.138990
C 	0.000000	0.000000	1.883201
N 	0.002369	0.001843	3.039447
C 	0.001273	0.006502	4.453692
C 	0.371114	1.410640	4.952129
H 	-0.363721	2.159423	4.582918
H 	1.378390	1.702555	4.584519
H 	0.378879	1.444509	6.063196
C 	-1.397869	-0.382829	4.954952
H 	-2.155502	0.343058	4.587429
H 	-1.428464	-0.390663	6.066712
H 	-1.676096	-1.393384	4.585693
C 	1.032457	-1.018645	4.954571
H 	2.049690	-0.759911	4.586890
H 	0.781245	-2.036701	4.586870
H 	1.056649	-1.040812	6.064335
C 	0.000000	0.000000	-1.883201
N 	0.000174	-0.000077	-3.041388
C 	-0.000264	-0.000384	-4.455543
C 	-1.055284	0.997294	-4.957413
H 	-0.827252	2.021649	-4.590867
H 	-2.065072	0.713674	-4.589591
H 	-1.078615	1.018423	-6.068514
C 	1.391292	0.414620	-4.957473
H 	1.649660	1.431571	-4.590482
H 	1.421527	0.423456	-6.068536
H 	2.164864	-0.293928	-4.589986
C 	-0.336826	-1.413314	-4.956256
H 	-1.336932	-1.728542	-4.587501
H 	0.414906	-2.145319	-4.589177
H 	-0.345454	-1.445028	-6.067226
