64
01/19/2019 23:07, XYZ structure generated by mol3D Class, molSimplify
Fe 	0.000000	0.000000	0.000000
N 	2.009184	-0.000015	0.000000
C 	2.332626	1.266726	-0.391662
N 	3.626993	1.624868	-0.597475
C 	4.637020	0.751965	-0.393437
C 	4.356623	-0.522439	0.072512
C 	3.023187	-0.901749	0.286986
N 	2.805807	-2.204455	0.804114
C 	1.250930	2.278696	-0.508270
N 	0.000000	2.009184	0.000000
C 	-0.980661	2.957553	-0.000117
C 	-0.744978	4.219695	-0.543215
C 	0.509549	4.512471	-1.072176
C 	1.516829	3.548981	-1.047019
H 	5.660061	1.059972	-0.563040
H 	5.171974	-1.207423	0.270177
H 	1.916566	-2.524698	1.174814
H 	3.605273	-2.835844	0.961645
H 	-1.950417	2.733703	0.421484
H 	-1.527789	4.966975	-0.547658
H 	0.706413	5.491849	-1.488679
H 	2.494279	3.798504	-1.439834
N 	0.000000	0.000014	2.009184
C 	-0.501472	-1.254456	2.265775
N 	-0.998620	-1.556299	3.496784
C 	-1.002243	-0.656573	4.503640
C 	-0.466692	0.601270	4.294469
C 	0.052265	0.918185	3.034599
N 	0.672157	2.181573	2.872540
C 	-0.548300	-2.281167	1.214638
N 	0.000000	-2.009184	0.000000
C 	-0.013364	-2.928077	-1.007746
C 	-0.590547	-4.182536	-0.812624
C 	-1.153281	-4.487637	0.423909
C 	-1.134731	-3.539421	1.445755
H 	-1.402471	-0.928427	5.471174
H 	-0.436655	1.314830	5.108593
H 	0.693029	2.857016	3.650801
H 	1.215599	2.415478	2.039267
H 	0.422080	-2.693246	-1.966327
H 	-0.600252	-4.911027	-1.612979
H 	-1.603612	-5.457599	0.590775
H 	-1.575806	-3.789683	2.402084
N 	0.000013	0.000000	-2.009184
C 	-1.212506	0.585448	-2.242339
N 	-1.450981	1.226297	-3.419887
C 	-0.516657	1.300002	-4.392613
C 	0.705596	0.678751	-4.209761
C 	0.948491	0.007698	-3.007495
N 	2.165523	-0.702108	-2.872271
C 	-2.273742	0.523358	-1.234415
N 	-2.009184	0.000000	0.000000
C 	-3.000444	-0.045250	0.946760
C 	-4.279081	0.442314	0.680705
C 	-4.555851	0.984229	-0.565766
C 	-3.555684	1.029680	-1.529109
H 	-0.736439	1.817565	-5.316742
H 	1.445191	0.699038	-5.000511
H 	2.323715	-1.339610	-2.087617
H 	2.871252	-0.684185	-3.623102
H 	-2.827241	-0.454675	1.924576
H 	-5.049281	0.400397	1.440166
H 	-5.543335	1.369074	-0.785609
H 	-3.787173	1.457147	-2.496351
